*Heading
** Job name: section_properties Model name: Model-1
** Generated by: Abaqus/CAE 2017
*Preprint, echo=NO, model=NO, history=NO, contact=NO
**
** PARTS
**
*Part, name=GIRD_SEC
*Node
      1,  -10.9754562, -0.346782058
      2,  -10.9554644, -0.346195459
      3,  -10.9354725,  -0.34560883
      4,  -10.9054852, -0.344728917
      5,  -10.8854933, -0.344142318
      6,  -10.8655014, -0.343555719
      7,  -10.8455095,  -0.34296909
      8,  -10.8255186, -0.342382491
      9,  -10.8055267, -0.341795892
     10,  -10.7855349, -0.341209263
     11,  -10.7555475, -0.340329349
     12,  -10.7355556,  -0.33974275
     13,  -10.7155638, -0.339156151
     14,  -10.6955719, -0.338569522
     15,    -10.67558, -0.337982923
     16,  -10.6555882, -0.337396324
     17,  -10.6256008,  -0.33651641
     18,  -10.6056089, -0.335929781
     19,  -10.5856171, -0.335343182
     20,  -10.5656261, -0.334756583
** ... 33508 like lines cut
*Element, type=WARP2D3
  1, 27316, 27245, 26669
  2, 27745, 27008, 26747
  3, 27590, 27103, 27210
  4, 27462, 27194, 26702
  5, 30607, 28439, 28477
  6, 32628, 32394, 32218
  7, 30679, 18917, 28206
  8, 25342, 14783, 14687
  9, 20771,  6585, 30046
 10, 28964, 20781, 21276
 11, 32100, 28898, 19177
 12, 32986, 25199, 21107
 13, 25143, 21137,  6513
 14, 32113, 29592, 19321
 15, 29984, 25194, 21010
 16, 32979, 25167, 21184
 17, 29396, 21988, 21398
 18, 26816, 27383, 27533
 19, 31634, 25579, 26824
 20, 33392, 27334, 31918
** ... 242 like lines cut
*Element, type=WARP2D4
  263, 10997,  3464, 17635, 17522
  264,  3465, 10997, 17522, 32941
  265, 24799, 24934,  2820, 10254
  266, 17467, 17486, 10996,  3463
  267, 33293,  5660, 31216, 31231
  268, 25351, 24876, 25043, 32678
  269, 27953, 24800, 24876, 25351
  270, 24932, 24980, 10248,  2816
  271, 25017, 27910, 27875, 24801
  272, 17165, 25277, 27023, 16420
  273, 25277, 17165, 16985, 31863
  274,     3,  6787,  5659, 16985
  275,  5658, 25063,  6790,     6
  276, 13801, 16419,     8,  6793
  277, 15713, 15844,  2828, 10264
  278,  5657, 13801,  6793,     9
  279, 16500, 16887,    10,  6795
  280, 27703, 27609, 15847, 15715
  281, 16888, 16500,  6795,  6796
  282, 16500, 26968, 26903, 16887
** ... 27065 like lines cut
*Nset, nset=whole, generate
     1,  33528,      1
*Elset, elset=whole, generate
     1,  27347,      1
** Section: sec
*Solid Section, elset=whole, material=ALU
,
*End Part
**  
**
** ASSEMBLY
**
*Assembly, name=Assembly
**  
*Instance, name=GIRD_INST, part=GIRD_SEC
*End Instance
**  
*End Assembly
** 
** MATERIALS
** 
*Material, name=ALU
*Density
2700.,
*Elastic
 7e+10, 0.3
*STEP 
*BEAM SECTION GENERATE 
*SECTION ORIGIN, ORIGIN=CENTROID 
**SECTION POINTS 
**113, 190, 1 
*END STEP
