1

   Abaqus 3DEXPERIENCE R2019x                                  Date 03-Jun-2022   Time 10:26:47
   For use by NTNU NORGES TEKNISK NATURVITENSKAPELIGE UNIVERSITET under license from Dassault Systemes or its subsidiary.

                                                                                 
                                                                                 
 STEP    1     INCREMENT     1     STEP TIME    0.00    


                        S T E P       1     S T A T I C   A N A L Y S I S


                                                                                          

     AUTOMATIC TIME CONTROL WITH -
          A SUGGESTED INITIAL TIME INCREMENT OF                0.100    
          AND A TOTAL TIME PERIOD OF                            1.00    
          THE MINIMUM TIME INCREMENT ALLOWED IS                1.000E-06
          THE MAXIMUM TIME INCREMENT ALLOWED IS                 1.00    

     LINEAR EQUATION SOLVER TYPE         DIRECT SPARSE

 CONVERGENCE TOLERANCE PARAMETERS FOR FORCE    
     CRITERION FOR RESIDUAL FORCE     FOR A NONLINEAR PROBLEM          5.000E-03
     CRITERION FOR DISP.    CORRECTION IN A NONLINEAR PROBLEM          1.000E-02
     INITIAL VALUE OF TIME AVERAGE FORCE                               1.000E-02
     AVERAGE FORCE     IS TIME AVERAGE FORCE    
     ALTERNATE CRIT. FOR RESIDUAL FORCE     FOR A NONLINEAR PROBLEM    2.000E-02
     CRITERION FOR ZERO FORCE     RELATIVE TO TIME AVRG. FORCE         1.000E-05
     CRITERION FOR RESIDUAL FORCE     WHEN THERE IS ZERO FLUX          1.000E-05
     CRITERION FOR DISP.    CORRECTION WHEN THERE IS ZERO FLUX         1.000E-03
     CRITERION FOR RESIDUAL FORCE     FOR A LINEAR INCREMENT           1.000E-08
     FIELD CONVERSION RATIO                                             1.00    
     CRITERION FOR ZERO FORCE     REL. TO TIME AVRG. MAX. FORCE        1.000E-05
     CRITERION FOR ZERO DISP.    RELATIVE TO CHARACTERISTIC LENGTH     1.000E-08

 CONVERGENCE TOLERANCE PARAMETERS FOR MOMENT   
     CRITERION FOR RESIDUAL MOMENT    FOR A NONLINEAR PROBLEM          5.000E-03
     CRITERION FOR ROTATION CORRECTION IN A NONLINEAR PROBLEM          1.000E-02
     INITIAL VALUE OF TIME AVERAGE MOMENT                              1.000E-02
     AVERAGE MOMENT    IS TIME AVERAGE MOMENT   
     ALTERNATE CRIT. FOR RESIDUAL MOMENT    FOR A NONLINEAR PROBLEM    2.000E-02
     CRITERION FOR ZERO MOMENT    RELATIVE TO TIME AVRG. MOMENT        1.000E-05
     CRITERION FOR RESIDUAL MOMENT    WHEN THERE IS ZERO FLUX          1.000E-05
     CRITERION FOR ROTATION CORRECTION WHEN THERE IS ZERO FLUX         1.000E-03
     CRITERION FOR RESIDUAL MOMENT    FOR A LINEAR INCREMENT           1.000E-08
     FIELD CONVERSION RATIO                                             1.00    
     CRITERION FOR ZERO MOMENT    REL. TO TIME AVRG. MAX. MOMENT       1.000E-05

     VOLUMETRIC STRAIN COMPATIBILITY TOLERANCE FOR HYBRID SOLIDS       1.000E-05
     AXIAL STRAIN COMPATIBILITY TOLERANCE FOR HYBRID BEAMS             1.000E-05
     TRANS. SHEAR STRAIN COMPATIBILITY TOLERANCE FOR HYBRID BEAMS      1.000E-05
     SOFT CONTACT CONSTRAINT COMPATIBILITY TOLERANCE FOR P>P0          5.000E-03
     SOFT CONTACT CONSTRAINT COMPATIBILITY TOLERANCE FOR P=0.0         0.100    
     CONTACT FORCE ERROR TOLERANCE FOR CONVERT SDI=YES                 1.00    
     DISPLACEMENT COMPATIBILITY TOLERANCE FOR DCOUP ELEMENTS           1.000E-05
     ROTATION COMPATIBILITY TOLERANCE FOR DCOUP ELEMENTS               1.000E-05

 EQUILIBRIUM WILL BE CHECKED FOR SEVERE DISCONTINUITY ITERATIONS

 TIME INCREMENTATION CONTROL PARAMETERS:
     FIRST EQUILIBRIUM ITERATION FOR CONSECUTIVE DIVERGENCE CHECK              4
     EQUILIBRIUM ITERATION AT WHICH LOG. CONVERGENCE RATE CHECK BEGINS         8
     EQUILIBRIUM ITERATION AFTER WHICH ALTERNATE RESIDUAL IS USED              9
     MAXIMUM EQUILIBRIUM ITERATIONS ALLOWED                                   16
     EQUILIBRIUM ITERATION COUNT FOR CUT-BACK IN NEXT INCREMENT               10
     MAXIMUM EQUILIB. ITERS IN TWO INCREMENTS FOR TIME INCREMENT INCREASE      4
     MAXIMUM ITERATIONS FOR SEVERE DISCONTINUITIES                            50
     MAXIMUM ATTEMPTS ALLOWED IN AN INCREMENT                                  5
     MAXIMUM DISCON. ITERS IN TWO INCREMENTS FOR TIME INCREMENT INCREASE      50
     MAXIMUM CONTACT AUGMENTATIONS FOR *SURFACE BEHAVIOR,AUGMENTED LAGRANGE   50
     CUT-BACK FACTOR AFTER DIVERGENCE                                 0.2500    
     CUT-BACK FACTOR FOR TOO SLOW CONVERGENCE                         0.5000    
     CUT-BACK FACTOR AFTER TOO MANY EQUILIBRIUM ITERATIONS            0.7500    
     CUT-BACK FACTOR AFTER TOO MANY SEVERE DISCONTINUITY ITERATIONS   0.2500    
     CUT-BACK FACTOR AFTER PROBLEMS IN ELEMENT ASSEMBLY               0.2500    
     INCREASE FACTOR AFTER TWO INCREMENTS THAT CONVERGE QUICKLY        1.500    
     MAX. TIME INCREMENT INCREASE FACTOR ALLOWED                       1.500    
     MAX. TIME INCREMENT INCREASE FACTOR ALLOWED (DYNAMICS)            1.250    
     MAX. TIME INCREMENT INCREASE FACTOR ALLOWED (DIFFUSION)           2.000    
     MINIMUM TIME INCREMENT RATIO FOR EXTRAPOLATION TO OCCUR          0.1000    
     MAX. RATIO OF TIME INCREMENT TO STABILITY LIMIT                   1.000    
     FRACTION OF STABILITY LIMIT FOR NEW TIME INCREMENT               0.9500    
     TIME INCREMENT INCREASE FACTOR BEFORE A TIME POINT                1.000    
     GLOBAL STABILIZATION CONTROL IS NOT USED

          PRINT OF INCREMENT NUMBER, TIME, ETC., EVERY    1  INCREMENTS

     THE MAXIMUM NUMBER OF INCREMENTS IN THIS STEP IS                     100

          LARGE DISPLACEMENT THEORY WILL BE USED

     LINEAR EXTRAPOLATION WILL BE USED

     CHARACTERISTIC ELEMENT LENGTH      14.8    

     DETAILS REGARDING ACTUAL SOLUTION WAVEFRONT REQUESTED

     DETAILED OUTPUT OF DIAGNOSTICS TO DATABASE REQUESTED

     PRINT OF INCREMENT NUMBER, TIME, ETC., TO THE MESSAGE FILE EVERY     1  INCREMENTS

     ELEMENT OPERATIONS WILL BE CARRIED OUT IN PARALLEL USING   4 PROCESSORS

     PARALLEL CONTACT TRACKING ENABLED


     COLLECTING MODEL CONSTRAINT INFORMATION FOR OVERCONSTRAINT CHECKS

     COLLECTING STEP CONSTRAINT INFORMATION FOR OVERCONSTRAINT CHECKS
  
     ASYNCHRONOUS OUTPUT DATABASE FRAME FLUSH STARTED
  


  INCREMENT     1 STARTS. ATTEMPT NUMBER  1, TIME INCREMENT  0.100    
 
     INITIAL ELEMENT LOAD BALANCE
            PROCESS    1   THREAD     NUMBER OF ELEMENTS
                              1            512
                              2            301
                              3            512
                              4            256

 ***WARNING: THERE ARE 2 UNCONNECTED REGIONS IN THE MODEL.

  NUMBER OF EQUATIONS =      1140     NUMBER OF RHS =    1
  NUMBER OF FLOATING PT. OPERATIONS =  2.64E+05

  USING THE DIRECT SOLVER WITH   4 PROCESSORS

     CHECK POINT   START OF SOLVER    

     CHECK POINT  END OF SOLVER       

       ELAPSED USER TIME (SEC)      =  0.10000    
       ELAPSED SYSTEM TIME (SEC)    =   0.0000    
       ELAPSED TOTAL CPU TIME (SEC) =  0.10000    
       ELAPSED WALLCLOCK TIME (SEC) =          0

               CONVERGENCE CHECKS FOR EQUILIBRIUM ITERATION     1


 AVERAGE FORCE                      3.434E+05   TIME AVG. FORCE       3.434E+05
 LARGEST RESIDUAL FORCE            -1.273E+05   AT NODE     110043   DOF  3
   INSTANCE: SUSPENSIONBRIDGE                                                                
 LARGEST INCREMENT OF DISP.        -0.101       AT NODE     110043   DOF  1
   INSTANCE: SUSPENSIONBRIDGE                                                                
 LARGEST CORRECTION TO DISP.       -0.101       AT NODE     110043   DOF  1
   INSTANCE: SUSPENSIONBRIDGE                                                                
          FORCE     EQUILIBRIUM NOT ACHIEVED WITHIN TOLERANCE.

 AVERAGE MOMENT                     2.408E+06   TIME AVG. MOMENT      2.408E+06
 LARGEST RESIDUAL MOMENT           -8.652E+03   AT NODE     110041   DOF  4
   INSTANCE: SUSPENSIONBRIDGE                                                                
 LARGEST INCREMENT OF ROTATION     -8.853E-04   AT NODE     100043   DOF  5
   INSTANCE: SUSPENSIONBRIDGE                                                                
 LARGEST CORRECTION TO ROTATION    -8.853E-04   AT NODE     100043   DOF  5
   INSTANCE: SUSPENSIONBRIDGE                                                                
          ROTATION CORRECTION TOO LARGE COMPARED TO ROTATION INCREMENT

  NUMBER OF EQUATIONS =      1140     NUMBER OF RHS =    1
  NUMBER OF FLOATING PT. OPERATIONS =  2.64E+05

  USING THE DIRECT SOLVER WITH   4 PROCESSORS

     CHECK POINT   START OF SOLVER    

     CHECK POINT  END OF SOLVER       

       ELAPSED USER TIME (SEC)      =  0.10000    
       ELAPSED SYSTEM TIME (SEC)    =   0.0000    
       ELAPSED TOTAL CPU TIME (SEC) =  0.10000    
       ELAPSED WALLCLOCK TIME (SEC) =          0

               CONVERGENCE CHECKS FOR EQUILIBRIUM ITERATION     2


 AVERAGE FORCE                      3.493E+05   TIME AVG. FORCE       3.493E+05
 LARGEST RESIDUAL FORCE             -24.9       AT NODE     210043   DOF  3
   INSTANCE: SUSPENSIONBRIDGE                                                                
 LARGEST INCREMENT OF DISP.        -0.103       AT NODE     110043   DOF  1
   INSTANCE: SUSPENSIONBRIDGE                                                                
 LARGEST CORRECTION TO DISP.       -1.562E-03   AT NODE     100043   DOF  1
   INSTANCE: SUSPENSIONBRIDGE                                                                
 ESTIMATE OF DISP.    CORRECTION   -3.057E-07
 FORCE     EQUILIB. ACCEPTED BASED ON SMALL RESIDUAL AND ESTIMATED CORRECTION

 AVERAGE MOMENT                     2.437E+06   TIME AVG. MOMENT      2.437E+06
 LARGEST RESIDUAL MOMENT             3.70       AT NODE     210013   DOF  6
   INSTANCE: SUSPENSIONBRIDGE                                                                
 LARGEST INCREMENT OF ROTATION     -8.977E-04   AT NODE     100043   DOF  5
   INSTANCE: SUSPENSIONBRIDGE                                                                
 LARGEST CORRECTION TO ROTATION    -1.240E-05   AT NODE     110043   DOF  5
   INSTANCE: SUSPENSIONBRIDGE                                                                
 ESTIMATE OF ROTATION CORRECTION    5.306E-09
 MOMENT    EQUILIB. ACCEPTED BASED ON SMALL RESIDUAL AND ESTIMATED CORRECTION

 ITERATION SUMMARY FOR THE INCREMENT:   2 TOTAL ITERATIONS, OF WHICH
   0 ARE SEVERE DISCONTINUITY ITERATIONS AND  2 ARE EQUILIBRIUM ITERATIONS.

 TIME INCREMENT COMPLETED  0.100    ,  FRACTION OF STEP COMPLETED  0.100    
 STEP TIME COMPLETED       0.100    ,  TOTAL TIME COMPLETED        0.100    


  INCREMENT     2 STARTS. ATTEMPT NUMBER  1, TIME INCREMENT  0.100    

  NUMBER OF EQUATIONS =      1140     NUMBER OF RHS =    1
  NUMBER OF FLOATING PT. OPERATIONS =  2.64E+05

  USING THE DIRECT SOLVER WITH   4 PROCESSORS

     CHECK POINT   START OF SOLVER    

     CHECK POINT  END OF SOLVER       

       ELAPSED USER TIME (SEC)      =  0.10000    
       ELAPSED SYSTEM TIME (SEC)    =   0.0000    
       ELAPSED TOTAL CPU TIME (SEC) =  0.10000    
       ELAPSED WALLCLOCK TIME (SEC) =          0

               CONVERGENCE CHECKS FOR EQUILIBRIUM ITERATION     1


 AVERAGE FORCE                      1.599E+06   TIME AVG. FORCE       9.743E+05
 LARGEST RESIDUAL FORCE             1.490E+03   AT NODE     101002   DOF  1
   INSTANCE: SUSPENSIONBRIDGE                                                                
 LARGEST INCREMENT OF DISP.         0.106       AT NODE     210043   DOF  1
   INSTANCE: SUSPENSIONBRIDGE                                                                
 LARGEST CORRECTION TO DISP.        3.180E-03   AT NODE     210043   DOF  1
   INSTANCE: SUSPENSIONBRIDGE                                                                
 ESTIMATE OF DISP.    CORRECTION   -1.810E-05
 FORCE     EQUILIB. ACCEPTED BASED ON SMALL RESIDUAL AND ESTIMATED CORRECTION

 AVERAGE MOMENT                     5.306E+06   TIME AVG. MOMENT      3.872E+06
 LARGEST RESIDUAL MOMENT            4.060E+03   AT NODE     100013   DOF  6
   INSTANCE: SUSPENSIONBRIDGE                                                                
 LARGEST INCREMENT OF ROTATION      9.230E-04   AT NODE     210043   DOF  5
   INSTANCE: SUSPENSIONBRIDGE                                                                
 LARGEST CORRECTION TO ROTATION     2.526E-05   AT NODE     210043   DOF  5
   INSTANCE: SUSPENSIONBRIDGE                                                                
 ESTIMATE OF ROTATION CORRECTION   -5.764E-06
 MOMENT    EQUILIB. ACCEPTED BASED ON SMALL RESIDUAL AND ESTIMATED CORRECTION
          TIME INCREMENT MAY NOW INCREASE TO    0.150    

 ITERATION SUMMARY FOR THE INCREMENT:   1 TOTAL ITERATIONS, OF WHICH
   0 ARE SEVERE DISCONTINUITY ITERATIONS AND  1 ARE EQUILIBRIUM ITERATIONS.

 TIME INCREMENT COMPLETED  0.100    ,  FRACTION OF STEP COMPLETED  0.200    
 STEP TIME COMPLETED       0.200    ,  TOTAL TIME COMPLETED        0.200    


  INCREMENT     3 STARTS. ATTEMPT NUMBER  1, TIME INCREMENT  0.150    

  NUMBER OF EQUATIONS =      1140     NUMBER OF RHS =    1
  NUMBER OF FLOATING PT. OPERATIONS =  2.64E+05

  USING THE DIRECT SOLVER WITH   4 PROCESSORS

     CHECK POINT   START OF SOLVER    

     CHECK POINT  END OF SOLVER       

       ELAPSED USER TIME (SEC)      =   0.0000    
       ELAPSED SYSTEM TIME (SEC)    =   0.0000    
       ELAPSED TOTAL CPU TIME (SEC) =   0.0000    
       ELAPSED WALLCLOCK TIME (SEC) =          0

               CONVERGENCE CHECKS FOR EQUILIBRIUM ITERATION     1


 AVERAGE FORCE                      2.799E+06   TIME AVG. FORCE       1.582E+06
 LARGEST RESIDUAL FORCE            -2.954E+03   AT NODE     201002   DOF  1
   INSTANCE: SUSPENSIONBRIDGE                                                                
 LARGEST INCREMENT OF DISP.         0.165       AT NODE     210043   DOF  1
   INSTANCE: SUSPENSIONBRIDGE                                                                
 LARGEST CORRECTION TO DISP.        6.371E-03   AT NODE     200043   DOF  1
   INSTANCE: SUSPENSIONBRIDGE                                                                
 ESTIMATE OF DISP.    CORRECTION    3.627E-05
 FORCE     EQUILIB. ACCEPTED BASED ON SMALL RESIDUAL AND ESTIMATED CORRECTION

 AVERAGE MOMENT                     9.462E+06   TIME AVG. MOMENT      5.735E+06
 LARGEST RESIDUAL MOMENT            7.907E+03   AT NODE     100013   DOF  6
   INSTANCE: SUSPENSIONBRIDGE                                                                
 LARGEST INCREMENT OF ROTATION      1.435E-03   AT NODE     210043   DOF  5
   INSTANCE: SUSPENSIONBRIDGE                                                                
 LARGEST CORRECTION TO ROTATION    -5.057E-05   AT NODE     110043   DOF  5
   INSTANCE: SUSPENSIONBRIDGE                                                                
 ESTIMATE OF ROTATION CORRECTION   -1.134E-05
 MOMENT    EQUILIB. ACCEPTED BASED ON SMALL RESIDUAL AND ESTIMATED CORRECTION
          TIME INCREMENT MAY NOW INCREASE TO    0.225    

 ITERATION SUMMARY FOR THE INCREMENT:   1 TOTAL ITERATIONS, OF WHICH
   0 ARE SEVERE DISCONTINUITY ITERATIONS AND  1 ARE EQUILIBRIUM ITERATIONS.

 TIME INCREMENT COMPLETED  0.150    ,  FRACTION OF STEP COMPLETED  0.350    
 STEP TIME COMPLETED       0.350    ,  TOTAL TIME COMPLETED        0.350    


  INCREMENT     4 STARTS. ATTEMPT NUMBER  1, TIME INCREMENT  0.225    

  NUMBER OF EQUATIONS =      1140     NUMBER OF RHS =    1
  NUMBER OF FLOATING PT. OPERATIONS =  2.64E+05

  USING THE DIRECT SOLVER WITH   4 PROCESSORS

     CHECK POINT   START OF SOLVER    

     CHECK POINT  END OF SOLVER       

       ELAPSED USER TIME (SEC)      =  0.10000    
       ELAPSED SYSTEM TIME (SEC)    =   0.0000    
       ELAPSED TOTAL CPU TIME (SEC) =  0.10000    
       ELAPSED WALLCLOCK TIME (SEC) =          1

               CONVERGENCE CHECKS FOR EQUILIBRIUM ITERATION     1


 AVERAGE FORCE                      4.536E+06   TIME AVG. FORCE       2.321E+06
 LARGEST RESIDUAL FORCE            -7.337E+03   AT NODE     201004   DOF  1
   INSTANCE: SUSPENSIONBRIDGE                                                                
 LARGEST INCREMENT OF DISP.         0.263       AT NODE     210043   DOF  1
   INSTANCE: SUSPENSIONBRIDGE                                                                
 LARGEST CORRECTION TO DISP.        1.531E-02   AT NODE     210043   DOF  1
   INSTANCE: SUSPENSIONBRIDGE                                                                
 ESTIMATE OF DISP.    CORRECTION    8.954E-05
 FORCE     EQUILIB. ACCEPTED BASED ON SMALL RESIDUAL AND ESTIMATED CORRECTION

 AVERAGE MOMENT                     1.600E+07   TIME AVG. MOMENT      8.302E+06
 LARGEST RESIDUAL MOMENT           -1.870E+04   AT NODE     110013   DOF  6
   INSTANCE: SUSPENSIONBRIDGE                                                                
 LARGEST INCREMENT OF ROTATION      2.274E-03   AT NODE     210043   DOF  5
   INSTANCE: SUSPENSIONBRIDGE                                                                
 LARGEST CORRECTION TO ROTATION     1.215E-04   AT NODE     210043   DOF  5
   INSTANCE: SUSPENSIONBRIDGE                                                                
          ROTATION CORRECTION TOO LARGE COMPARED TO ROTATION INCREMENT

  NUMBER OF EQUATIONS =      1140     NUMBER OF RHS =    1
  NUMBER OF FLOATING PT. OPERATIONS =  2.64E+05

  USING THE DIRECT SOLVER WITH   4 PROCESSORS

     CHECK POINT   START OF SOLVER    

     CHECK POINT  END OF SOLVER       

       ELAPSED USER TIME (SEC)      =  0.10000    
       ELAPSED SYSTEM TIME (SEC)    =   0.0000    
       ELAPSED TOTAL CPU TIME (SEC) =  0.10000    
       ELAPSED WALLCLOCK TIME (SEC) =          0

               CONVERGENCE CHECKS FOR EQUILIBRIUM ITERATION     2


 AVERAGE FORCE                      4.688E+06   TIME AVG. FORCE       2.359E+06
 LARGEST RESIDUAL FORCE             -3.58       AT NODE     210043   DOF  3
   INSTANCE: SUSPENSIONBRIDGE                                                                
 LARGEST INCREMENT OF DISP.        -0.263       AT NODE     110043   DOF  1
   INSTANCE: SUSPENSIONBRIDGE                                                                
 LARGEST CORRECTION TO DISP.       -5.958E-04   AT NODE     100043   DOF  1
   INSTANCE: SUSPENSIONBRIDGE                                                                
          THE FORCE     EQUILIBRIUM EQUATIONS HAVE CONVERGED

 AVERAGE MOMENT                     1.601E+07   TIME AVG. MOMENT      8.305E+06
 LARGEST RESIDUAL MOMENT            -8.11       AT NODE     200013   DOF  6
   INSTANCE: SUSPENSIONBRIDGE                                                                
 LARGEST INCREMENT OF ROTATION     -2.279E-03   AT NODE     110043   DOF  5
   INSTANCE: SUSPENSIONBRIDGE                                                                
 LARGEST CORRECTION TO ROTATION    -4.690E-06   AT NODE     100043   DOF  5
   INSTANCE: SUSPENSIONBRIDGE                                                                
          THE MOMENT    EQUILIBRIUM EQUATIONS HAVE CONVERGED
          TIME INCREMENT MAY NOW INCREASE TO    0.338    

 ITERATION SUMMARY FOR THE INCREMENT:   2 TOTAL ITERATIONS, OF WHICH
   0 ARE SEVERE DISCONTINUITY ITERATIONS AND  2 ARE EQUILIBRIUM ITERATIONS.

 TIME INCREMENT COMPLETED  0.225    ,  FRACTION OF STEP COMPLETED  0.575    
 STEP TIME COMPLETED       0.575    ,  TOTAL TIME COMPLETED        0.575    


  INCREMENT     5 STARTS. ATTEMPT NUMBER  1, TIME INCREMENT  0.338    

  NUMBER OF EQUATIONS =      1140     NUMBER OF RHS =    1
  NUMBER OF FLOATING PT. OPERATIONS =  2.64E+05

  USING THE DIRECT SOLVER WITH   4 PROCESSORS

     CHECK POINT   START OF SOLVER    

     CHECK POINT  END OF SOLVER       

       ELAPSED USER TIME (SEC)      =   0.0000    
       ELAPSED SYSTEM TIME (SEC)    =   0.0000    
       ELAPSED TOTAL CPU TIME (SEC) =   0.0000    
       ELAPSED WALLCLOCK TIME (SEC) =          0

               CONVERGENCE CHECKS FOR EQUILIBRIUM ITERATION     1


 AVERAGE FORCE                      7.197E+06   TIME AVG. FORCE       3.327E+06
 LARGEST RESIDUAL FORCE             1.991E+04   AT NODE     101004   DOF  1
   INSTANCE: SUSPENSIONBRIDGE                                                                
 LARGEST INCREMENT OF DISP.        -0.432       AT NODE     100043   DOF  1
   INSTANCE: SUSPENSIONBRIDGE                                                                
 LARGEST CORRECTION TO DISP.       -3.710E-02   AT NODE     100043   DOF  1
   INSTANCE: SUSPENSIONBRIDGE                                                                
          FORCE     EQUILIBRIUM NOT ACHIEVED WITHIN TOLERANCE.

 AVERAGE MOMENT                     2.658E+07   TIME AVG. MOMENT      1.196E+07
 LARGEST RESIDUAL MOMENT            4.547E+04   AT NODE     210013   DOF  6
   INSTANCE: SUSPENSIONBRIDGE                                                                
 LARGEST INCREMENT OF ROTATION     -3.712E-03   AT NODE     100043   DOF  5
   INSTANCE: SUSPENSIONBRIDGE                                                                
 LARGEST CORRECTION TO ROTATION    -2.941E-04   AT NODE     100043   DOF  5
   INSTANCE: SUSPENSIONBRIDGE                                                                
          ROTATION CORRECTION TOO LARGE COMPARED TO ROTATION INCREMENT

  NUMBER OF EQUATIONS =      1140     NUMBER OF RHS =    1
  NUMBER OF FLOATING PT. OPERATIONS =  2.64E+05

  USING THE DIRECT SOLVER WITH   4 PROCESSORS

     CHECK POINT   START OF SOLVER    

     CHECK POINT  END OF SOLVER       

       ELAPSED USER TIME (SEC)      =  0.10000    
       ELAPSED SYSTEM TIME (SEC)    =   0.0000    
       ELAPSED TOTAL CPU TIME (SEC) =  0.10000    
       ELAPSED WALLCLOCK TIME (SEC) =          0

               CONVERGENCE CHECKS FOR EQUILIBRIUM ITERATION     2


 AVERAGE FORCE                      7.440E+06   TIME AVG. FORCE       3.375E+06
 LARGEST RESIDUAL FORCE             -53.1       AT NODE     210043   DOF  3
   INSTANCE: SUSPENSIONBRIDGE                                                                
 LARGEST INCREMENT OF DISP.        -0.434       AT NODE     100043   DOF  1
   INSTANCE: SUSPENSIONBRIDGE                                                                
 LARGEST CORRECTION TO DISP.        2.299E-03   AT NODE     200043   DOF  1
   INSTANCE: SUSPENSIONBRIDGE                                                                
          THE FORCE     EQUILIBRIUM EQUATIONS HAVE CONVERGED

 AVERAGE MOMENT                     2.663E+07   TIME AVG. MOMENT      1.197E+07
 LARGEST RESIDUAL MOMENT             49.6       AT NODE     210013   DOF  6
   INSTANCE: SUSPENSIONBRIDGE                                                                
 LARGEST INCREMENT OF ROTATION     -3.730E-03   AT NODE     100043   DOF  5
   INSTANCE: SUSPENSIONBRIDGE                                                                
 LARGEST CORRECTION TO ROTATION     1.809E-05   AT NODE     200043   DOF  5
   INSTANCE: SUSPENSIONBRIDGE                                                                
          THE MOMENT    EQUILIBRIUM EQUATIONS HAVE CONVERGED

 ITERATION SUMMARY FOR THE INCREMENT:   2 TOTAL ITERATIONS, OF WHICH
   0 ARE SEVERE DISCONTINUITY ITERATIONS AND  2 ARE EQUILIBRIUM ITERATIONS.

 TIME INCREMENT COMPLETED  0.338    ,  FRACTION OF STEP COMPLETED  0.913    
 STEP TIME COMPLETED       0.913    ,  TOTAL TIME COMPLETED        0.913    


  INCREMENT     6 STARTS. ATTEMPT NUMBER  1, TIME INCREMENT  8.750E-02

  NUMBER OF EQUATIONS =      1140     NUMBER OF RHS =    1
  NUMBER OF FLOATING PT. OPERATIONS =  2.64E+05

  USING THE DIRECT SOLVER WITH   4 PROCESSORS

     CHECK POINT   START OF SOLVER    

     CHECK POINT  END OF SOLVER       

       ELAPSED USER TIME (SEC)      =   0.0000    
       ELAPSED SYSTEM TIME (SEC)    =   0.0000    
       ELAPSED TOTAL CPU TIME (SEC) =   0.0000    
       ELAPSED WALLCLOCK TIME (SEC) =          0

               CONVERGENCE CHECKS FOR EQUILIBRIUM ITERATION     1


 AVERAGE FORCE                      7.997E+06   TIME AVG. FORCE       4.145E+06
 LARGEST RESIDUAL FORCE             3.757E+03   AT NODE     101002   DOF  1
   INSTANCE: SUSPENSIONBRIDGE                                                                
 LARGEST INCREMENT OF DISP.         0.121       AT NODE     210043   DOF  1
   INSTANCE: SUSPENSIONBRIDGE                                                                
 LARGEST CORRECTION TO DISP.        8.563E-03   AT NODE     210043   DOF  1
   INSTANCE: SUSPENSIONBRIDGE                                                                
 ESTIMATE OF DISP.    CORRECTION   -4.362E-05
 FORCE     EQUILIB. ACCEPTED BASED ON SMALL RESIDUAL AND ESTIMATED CORRECTION

 AVERAGE MOMENT                     2.955E+07   TIME AVG. MOMENT      1.490E+07
 LARGEST RESIDUAL MOMENT            9.943E+03   AT NODE     100013   DOF  6
   INSTANCE: SUSPENSIONBRIDGE                                                                
 LARGEST INCREMENT OF ROTATION      1.035E-03   AT NODE     200043   DOF  5
   INSTANCE: SUSPENSIONBRIDGE                                                                
 LARGEST CORRECTION TO ROTATION     6.782E-05   AT NODE     200043   DOF  5
   INSTANCE: SUSPENSIONBRIDGE                                                                
          ROTATION CORRECTION TOO LARGE COMPARED TO ROTATION INCREMENT

  NUMBER OF EQUATIONS =      1140     NUMBER OF RHS =    1
  NUMBER OF FLOATING PT. OPERATIONS =  2.64E+05

  USING THE DIRECT SOLVER WITH   4 PROCESSORS

     CHECK POINT   START OF SOLVER    

     CHECK POINT  END OF SOLVER       

       ELAPSED USER TIME (SEC)      =  0.10000    
       ELAPSED SYSTEM TIME (SEC)    =   0.0000    
       ELAPSED TOTAL CPU TIME (SEC) =  0.10000    
       ELAPSED WALLCLOCK TIME (SEC) =          0

               CONVERGENCE CHECKS FOR EQUILIBRIUM ITERATION     2


 AVERAGE FORCE                      8.154E+06   TIME AVG. FORCE       4.172E+06
 LARGEST RESIDUAL FORCE              1.35       AT NODE     200013   DOF  1
   INSTANCE: SUSPENSIONBRIDGE                                                                
 LARGEST INCREMENT OF DISP.         0.121       AT NODE     210043   DOF  1
   INSTANCE: SUSPENSIONBRIDGE                                                                
 LARGEST CORRECTION TO DISP.       -1.393E-04   AT NODE     100043   DOF  1
   INSTANCE: SUSPENSIONBRIDGE                                                                
          THE FORCE     EQUILIBRIUM EQUATIONS HAVE CONVERGED

 AVERAGE MOMENT                     2.955E+07   TIME AVG. MOMENT      1.490E+07
 LARGEST RESIDUAL MOMENT            -3.33       AT NODE     200013   DOF  6
   INSTANCE: SUSPENSIONBRIDGE                                                                
 LARGEST INCREMENT OF ROTATION      1.036E-03   AT NODE     200043   DOF  5
   INSTANCE: SUSPENSIONBRIDGE                                                                
 LARGEST CORRECTION TO ROTATION    -1.094E-06   AT NODE     100042   DOF  5
   INSTANCE: SUSPENSIONBRIDGE                                                                
          THE MOMENT    EQUILIBRIUM EQUATIONS HAVE CONVERGED

 ITERATION SUMMARY FOR THE INCREMENT:   2 TOTAL ITERATIONS, OF WHICH
   0 ARE SEVERE DISCONTINUITY ITERATIONS AND  2 ARE EQUILIBRIUM ITERATIONS.

 TIME INCREMENT COMPLETED  8.750E-02,  FRACTION OF STEP COMPLETED   1.00    
 STEP TIME COMPLETED        1.00    ,  TOTAL TIME COMPLETED         1.00    
1

   Abaqus 3DEXPERIENCE R2019x                                  Date 03-Jun-2022   Time 10:26:48
   For use by NTNU NORGES TEKNISK NATURVITENSKAPELIGE UNIVERSITET under license from Dassault Systemes or its subsidiary.

                                                                                 
                                                                                 
 STEP    2     INCREMENT     1     STEP TIME    0.00    


                        S T E P       2     S T A T I C   A N A L Y S I S


                                                                                          

     AUTOMATIC TIME CONTROL WITH -
          A SUGGESTED INITIAL TIME INCREMENT OF                1.000E-08
          AND A TOTAL TIME PERIOD OF                            1.00    
          THE MINIMUM TIME INCREMENT ALLOWED IS                1.000E-12
          THE MAXIMUM TIME INCREMENT ALLOWED IS                 1.00    

     LINEAR EQUATION SOLVER TYPE         DIRECT SPARSE

 CONVERGENCE TOLERANCE PARAMETERS FOR FORCE    
     CRITERION FOR RESIDUAL FORCE     FOR A NONLINEAR PROBLEM          5.000E-03
     CRITERION FOR DISP.    CORRECTION IN A NONLINEAR PROBLEM          1.000E-02
     INIT. VALUE OF TIME AVG. FORCE     IS TIME AVG. FORCE     IN PREVIOUS STEP
     AVERAGE FORCE     IS TIME AVERAGE FORCE    
     ALTERNATE CRIT. FOR RESIDUAL FORCE     FOR A NONLINEAR PROBLEM    2.000E-02
     CRITERION FOR ZERO FORCE     RELATIVE TO TIME AVRG. FORCE         1.000E-05
     CRITERION FOR RESIDUAL FORCE     WHEN THERE IS ZERO FLUX          1.000E-05
     CRITERION FOR DISP.    CORRECTION WHEN THERE IS ZERO FLUX         1.000E-03
     CRITERION FOR RESIDUAL FORCE     FOR A LINEAR INCREMENT           1.000E-08
     FIELD CONVERSION RATIO                                             1.00    
     CRITERION FOR ZERO FORCE     REL. TO TIME AVRG. MAX. FORCE        1.000E-05
     CRITERION FOR ZERO DISP.    RELATIVE TO CHARACTERISTIC LENGTH     1.000E-08

 CONVERGENCE TOLERANCE PARAMETERS FOR MOMENT   
     CRITERION FOR RESIDUAL MOMENT    FOR A NONLINEAR PROBLEM          5.000E-03
     CRITERION FOR ROTATION CORRECTION IN A NONLINEAR PROBLEM          1.000E-02
     INIT. VALUE OF TIME AVG. MOMENT    IS TIME AVG. MOMENT    IN PREVIOUS STEP
     AVERAGE MOMENT    IS TIME AVERAGE MOMENT   
     ALTERNATE CRIT. FOR RESIDUAL MOMENT    FOR A NONLINEAR PROBLEM    2.000E-02
     CRITERION FOR ZERO MOMENT    RELATIVE TO TIME AVRG. MOMENT        1.000E-05
     CRITERION FOR RESIDUAL MOMENT    WHEN THERE IS ZERO FLUX          1.000E-05
     CRITERION FOR ROTATION CORRECTION WHEN THERE IS ZERO FLUX         1.000E-03
     CRITERION FOR RESIDUAL MOMENT    FOR A LINEAR INCREMENT           1.000E-08
     FIELD CONVERSION RATIO                                             1.00    
     CRITERION FOR ZERO MOMENT    REL. TO TIME AVRG. MAX. MOMENT       1.000E-05

     VOLUMETRIC STRAIN COMPATIBILITY TOLERANCE FOR HYBRID SOLIDS       1.000E-05
     AXIAL STRAIN COMPATIBILITY TOLERANCE FOR HYBRID BEAMS             1.000E-05
     TRANS. SHEAR STRAIN COMPATIBILITY TOLERANCE FOR HYBRID BEAMS      1.000E-05
     SOFT CONTACT CONSTRAINT COMPATIBILITY TOLERANCE FOR P>P0          5.000E-03
     SOFT CONTACT CONSTRAINT COMPATIBILITY TOLERANCE FOR P=0.0         0.100    
     CONTACT FORCE ERROR TOLERANCE FOR CONVERT SDI=YES                 1.00    
     DISPLACEMENT COMPATIBILITY TOLERANCE FOR DCOUP ELEMENTS           1.000E-05
     ROTATION COMPATIBILITY TOLERANCE FOR DCOUP ELEMENTS               1.000E-05

 EQUILIBRIUM WILL BE CHECKED FOR SEVERE DISCONTINUITY ITERATIONS

 TIME INCREMENTATION CONTROL PARAMETERS:
     FIRST EQUILIBRIUM ITERATION FOR CONSECUTIVE DIVERGENCE CHECK              4
     EQUILIBRIUM ITERATION AT WHICH LOG. CONVERGENCE RATE CHECK BEGINS         8
     EQUILIBRIUM ITERATION AFTER WHICH ALTERNATE RESIDUAL IS USED              9
     MAXIMUM EQUILIBRIUM ITERATIONS ALLOWED                                   16
     EQUILIBRIUM ITERATION COUNT FOR CUT-BACK IN NEXT INCREMENT               10
     MAXIMUM EQUILIB. ITERS IN TWO INCREMENTS FOR TIME INCREMENT INCREASE      4
     MAXIMUM ITERATIONS FOR SEVERE DISCONTINUITIES                            50
     MAXIMUM ATTEMPTS ALLOWED IN AN INCREMENT                                  5
     MAXIMUM DISCON. ITERS IN TWO INCREMENTS FOR TIME INCREMENT INCREASE      50
     MAXIMUM CONTACT AUGMENTATIONS FOR *SURFACE BEHAVIOR,AUGMENTED LAGRANGE   50
     CUT-BACK FACTOR AFTER DIVERGENCE                                 0.2500    
     CUT-BACK FACTOR FOR TOO SLOW CONVERGENCE                         0.5000    
     CUT-BACK FACTOR AFTER TOO MANY EQUILIBRIUM ITERATIONS            0.7500    
     CUT-BACK FACTOR AFTER TOO MANY SEVERE DISCONTINUITY ITERATIONS   0.2500    
     CUT-BACK FACTOR AFTER PROBLEMS IN ELEMENT ASSEMBLY               0.2500    
     INCREASE FACTOR AFTER TWO INCREMENTS THAT CONVERGE QUICKLY        1.500    
     MAX. TIME INCREMENT INCREASE FACTOR ALLOWED                       1.500    
     MAX. TIME INCREMENT INCREASE FACTOR ALLOWED (DYNAMICS)            1.250    
     MAX. TIME INCREMENT INCREASE FACTOR ALLOWED (DIFFUSION)           2.000    
     MINIMUM TIME INCREMENT RATIO FOR EXTRAPOLATION TO OCCUR          0.1000    
     MAX. RATIO OF TIME INCREMENT TO STABILITY LIMIT                   1.000    
     FRACTION OF STABILITY LIMIT FOR NEW TIME INCREMENT               0.9500    
     TIME INCREMENT INCREASE FACTOR BEFORE A TIME POINT                1.000    
     GLOBAL STABILIZATION CONTROL IS NOT USED

          PRINT OF INCREMENT NUMBER, TIME, ETC., EVERY    1  INCREMENTS

     THE MAXIMUM NUMBER OF INCREMENTS IN THIS STEP IS                     100

          LARGE DISPLACEMENT THEORY WILL BE USED

     LINEAR EXTRAPOLATION WILL BE USED

     CHARACTERISTIC ELEMENT LENGTH      14.8    

     DETAILS REGARDING ACTUAL SOLUTION WAVEFRONT REQUESTED

     DETAILED OUTPUT OF DIAGNOSTICS TO DATABASE REQUESTED

     PRINT OF INCREMENT NUMBER, TIME, ETC., TO THE MESSAGE FILE EVERY     1  INCREMENTS

     ELEMENT OPERATIONS WILL BE CARRIED OUT IN PARALLEL USING   4 PROCESSORS

     COLLECTING STEP CONSTRAINT INFORMATION FOR OVERCONSTRAINT CHECKS
  
     ASYNCHRONOUS OUTPUT DATABASE FRAME FLUSH STARTED
  


  INCREMENT     1 STARTS. ATTEMPT NUMBER  1, TIME INCREMENT  1.000E-08
 
     INITIAL ELEMENT LOAD BALANCE
            PROCESS    1   THREAD     NUMBER OF ELEMENTS
                              1            512
                              2            512
                              3            301
                              4            256

  NUMBER OF EQUATIONS =      4416     NUMBER OF RHS =    1
  NUMBER OF FLOATING PT. OPERATIONS =  1.12E+06

  USING THE DIRECT SOLVER WITH   4 PROCESSORS

     CHECK POINT   START OF SOLVER    

     CHECK POINT  END OF SOLVER       

       ELAPSED USER TIME (SEC)      =  0.10000    
       ELAPSED SYSTEM TIME (SEC)    =   0.0000    
       ELAPSED TOTAL CPU TIME (SEC) =  0.10000    
       ELAPSED WALLCLOCK TIME (SEC) =          0

               CONVERGENCE CHECKS FOR EQUILIBRIUM ITERATION     1


 AVERAGE FORCE                      8.154E+06   TIME AVG. FORCE       8.154E+06
 LARGEST RESIDUAL FORCE             -4.18       AT NODE      20051   DOF  3
   INSTANCE: SUSPENSIONBRIDGE                                                                
 LARGEST INCREMENT OF DISP.        -1.505E-03   AT NODE      20025   DOF  3
   INSTANCE: SUSPENSIONBRIDGE                                                                
 LARGEST CORRECTION TO DISP.       -1.505E-03   AT NODE      20025   DOF  3
   INSTANCE: SUSPENSIONBRIDGE                                                                
          DISP.    CORRECTION TOO LARGE COMPARED TO DISP.    INCREMENT

 AVERAGE MOMENT                     2.955E+07   TIME AVG. MOMENT      2.955E+07
 LARGEST RESIDUAL MOMENT           -0.191       AT NODE      10128   DOF  5
   INSTANCE: SUSPENSIONBRIDGE                                                                
 LARGEST INCREMENT OF ROTATION      1.817E-05   AT NODE      20001   DOF  5
   INSTANCE: SUSPENSIONBRIDGE                                                                
 LARGEST CORRECTION TO ROTATION     1.817E-05   AT NODE      20001   DOF  5
   INSTANCE: SUSPENSIONBRIDGE                                                                
          THE MOMENT    EQUILIBRIUM RESPONSE WAS LINEAR IN THIS INCREMENT

  NUMBER OF EQUATIONS =      4416     NUMBER OF RHS =    1
  NUMBER OF FLOATING PT. OPERATIONS =  1.12E+06

  USING THE DIRECT SOLVER WITH   4 PROCESSORS

     CHECK POINT   START OF SOLVER    

     CHECK POINT  END OF SOLVER       

       ELAPSED USER TIME (SEC)      =  0.10000    
       ELAPSED SYSTEM TIME (SEC)    =   0.0000    
       ELAPSED TOTAL CPU TIME (SEC) =  0.10000    
       ELAPSED WALLCLOCK TIME (SEC) =          0

               CONVERGENCE CHECKS FOR EQUILIBRIUM ITERATION     2


 AVERAGE FORCE                      8.154E+06   TIME AVG. FORCE       8.154E+06
 LARGEST RESIDUAL FORCE            -8.845E-02   AT NODE     201103   DOF  1
   INSTANCE: SUSPENSIONBRIDGE                                                                
 LARGEST INCREMENT OF DISP.        -1.504E-03   AT NODE      10025   DOF  3
   INSTANCE: SUSPENSIONBRIDGE                                                                
 LARGEST CORRECTION TO DISP.        7.978E-07   AT NODE      20103   DOF  3
   INSTANCE: SUSPENSIONBRIDGE                                                                
          THE FORCE     EQUILIBRIUM EQUATIONS HAVE CONVERGED

 AVERAGE MOMENT                     2.955E+07   TIME AVG. MOMENT      2.955E+07
 LARGEST RESIDUAL MOMENT           -5.304E-02   AT NODE     200042   DOF  6
   INSTANCE: SUSPENSIONBRIDGE                                                                
 LARGEST INCREMENT OF ROTATION      1.816E-05   AT NODE      10001   DOF  5
   INSTANCE: SUSPENSIONBRIDGE                                                                
 LARGEST CORRECTION TO ROTATION    -2.256E-08   AT NODE      10051   DOF  6
   INSTANCE: SUSPENSIONBRIDGE                                                                
          THE MOMENT    EQUILIBRIUM EQUATIONS HAVE CONVERGED

 ITERATION SUMMARY FOR THE INCREMENT:   2 TOTAL ITERATIONS, OF WHICH
   0 ARE SEVERE DISCONTINUITY ITERATIONS AND  2 ARE EQUILIBRIUM ITERATIONS.

 TIME INCREMENT COMPLETED  1.000E-08,  FRACTION OF STEP COMPLETED  1.000E-08
 STEP TIME COMPLETED       1.000E-08,  TOTAL TIME COMPLETED         1.00    


  INCREMENT     2 STARTS. ATTEMPT NUMBER  1, TIME INCREMENT  1.000E-08

  NUMBER OF EQUATIONS =      4416     NUMBER OF RHS =    1
  NUMBER OF FLOATING PT. OPERATIONS =  1.12E+06

  USING THE DIRECT SOLVER WITH   4 PROCESSORS

     CHECK POINT   START OF SOLVER    

     CHECK POINT  END OF SOLVER       

       ELAPSED USER TIME (SEC)      =  0.10000    
       ELAPSED SYSTEM TIME (SEC)    =   0.0000    
       ELAPSED TOTAL CPU TIME (SEC) =  0.10000    
       ELAPSED WALLCLOCK TIME (SEC) =          0

               CONVERGENCE CHECKS FOR EQUILIBRIUM ITERATION     1


 AVERAGE FORCE                      8.154E+06   TIME AVG. FORCE       8.154E+06
 LARGEST RESIDUAL FORCE            -8.694E-02   AT NODE     201104   DOF  1
   INSTANCE: SUSPENSIONBRIDGE                                                                
 LARGEST INCREMENT OF DISP.        -1.503E-03   AT NODE      20025   DOF  3
   INSTANCE: SUSPENSIONBRIDGE                                                                
 LARGEST CORRECTION TO DISP.        1.666E-06   AT NODE      10103   DOF  3
   INSTANCE: SUSPENSIONBRIDGE                                                                
          THE FORCE     EQUILIBRIUM EQUATIONS HAVE CONVERGED

 AVERAGE MOMENT                     2.955E+07   TIME AVG. MOMENT      2.955E+07
 LARGEST RESIDUAL MOMENT            8.563E-02   AT NODE     200042   DOF  6
   INSTANCE: SUSPENSIONBRIDGE                                                                
 LARGEST INCREMENT OF ROTATION      1.815E-05   AT NODE      20001   DOF  5
   INSTANCE: SUSPENSIONBRIDGE                                                                
 LARGEST CORRECTION TO ROTATION    -1.364E-08   AT NODE      10001   DOF  5
   INSTANCE: SUSPENSIONBRIDGE                                                                
          THE MOMENT    EQUILIBRIUM RESPONSE WAS LINEAR IN THIS INCREMENT
          TIME INCREMENT MAY NOW INCREASE TO    1.500E-08

 ITERATION SUMMARY FOR THE INCREMENT:   1 TOTAL ITERATIONS, OF WHICH
   0 ARE SEVERE DISCONTINUITY ITERATIONS AND  1 ARE EQUILIBRIUM ITERATIONS.

 TIME INCREMENT COMPLETED  1.000E-08,  FRACTION OF STEP COMPLETED  2.000E-08
 STEP TIME COMPLETED       2.000E-08,  TOTAL TIME COMPLETED         1.00    


  INCREMENT     3 STARTS. ATTEMPT NUMBER  1, TIME INCREMENT  1.500E-08

  NUMBER OF EQUATIONS =      4416     NUMBER OF RHS =    1
  NUMBER OF FLOATING PT. OPERATIONS =  1.12E+06

  USING THE DIRECT SOLVER WITH   4 PROCESSORS

     CHECK POINT   START OF SOLVER    

     CHECK POINT  END OF SOLVER       

       ELAPSED USER TIME (SEC)      =  0.10000    
       ELAPSED SYSTEM TIME (SEC)    =   0.0000    
       ELAPSED TOTAL CPU TIME (SEC) =  0.10000    
       ELAPSED WALLCLOCK TIME (SEC) =          1

               CONVERGENCE CHECKS FOR EQUILIBRIUM ITERATION     1


 AVERAGE FORCE                      8.154E+06   TIME AVG. FORCE       8.154E+06
 LARGEST RESIDUAL FORCE            -0.128       AT NODE     201102   DOF  1
   INSTANCE: SUSPENSIONBRIDGE                                                                
 LARGEST INCREMENT OF DISP.        -2.252E-03   AT NODE      10025   DOF  3
   INSTANCE: SUSPENSIONBRIDGE                                                                
 LARGEST CORRECTION TO DISP.        3.200E-06   AT NODE      10103   DOF  3
   INSTANCE: SUSPENSIONBRIDGE                                                                
          THE FORCE     EQUILIBRIUM EQUATIONS HAVE CONVERGED

 AVERAGE MOMENT                     2.955E+07   TIME AVG. MOMENT      2.955E+07
 LARGEST RESIDUAL MOMENT           -0.169       AT NODE     200042   DOF  6
   INSTANCE: SUSPENSIONBRIDGE                                                                
 LARGEST INCREMENT OF ROTATION      2.719E-05   AT NODE      10001   DOF  5
   INSTANCE: SUSPENSIONBRIDGE                                                                
 LARGEST CORRECTION TO ROTATION    -2.749E-08   AT NODE      20001   DOF  5
   INSTANCE: SUSPENSIONBRIDGE                                                                
          THE MOMENT    EQUILIBRIUM RESPONSE WAS LINEAR IN THIS INCREMENT
          TIME INCREMENT MAY NOW INCREASE TO    2.250E-08

 ITERATION SUMMARY FOR THE INCREMENT:   1 TOTAL ITERATIONS, OF WHICH
   0 ARE SEVERE DISCONTINUITY ITERATIONS AND  1 ARE EQUILIBRIUM ITERATIONS.

 TIME INCREMENT COMPLETED  1.500E-08,  FRACTION OF STEP COMPLETED  3.500E-08
 STEP TIME COMPLETED       3.500E-08,  TOTAL TIME COMPLETED         1.00    


  INCREMENT     4 STARTS. ATTEMPT NUMBER  1, TIME INCREMENT  2.250E-08

  NUMBER OF EQUATIONS =      4416     NUMBER OF RHS =    1
  NUMBER OF FLOATING PT. OPERATIONS =  1.12E+06

  USING THE DIRECT SOLVER WITH   4 PROCESSORS

     CHECK POINT   START OF SOLVER    

     CHECK POINT  END OF SOLVER       

       ELAPSED USER TIME (SEC)      =  0.10000    
       ELAPSED SYSTEM TIME (SEC)    =   0.0000    
       ELAPSED TOTAL CPU TIME (SEC) =  0.10000    
       ELAPSED WALLCLOCK TIME (SEC) =          0

               CONVERGENCE CHECKS FOR EQUILIBRIUM ITERATION     1


 AVERAGE FORCE                      8.154E+06   TIME AVG. FORCE       8.154E+06
 LARGEST RESIDUAL FORCE             0.110       AT NODE     101102   DOF  1
   INSTANCE: SUSPENSIONBRIDGE                                                                
 LARGEST INCREMENT OF DISP.        -3.372E-03   AT NODE      10025   DOF  3
   INSTANCE: SUSPENSIONBRIDGE                                                                
 LARGEST CORRECTION TO DISP.        7.486E-06   AT NODE      20103   DOF  3
   INSTANCE: SUSPENSIONBRIDGE                                                                
          THE FORCE     EQUILIBRIUM EQUATIONS HAVE CONVERGED

 AVERAGE MOMENT                     2.955E+07   TIME AVG. MOMENT      2.955E+07
 LARGEST RESIDUAL MOMENT            0.138       AT NODE     200042   DOF  6
   INSTANCE: SUSPENSIONBRIDGE                                                                
 LARGEST INCREMENT OF ROTATION      4.072E-05   AT NODE      10001   DOF  5
   INSTANCE: SUSPENSIONBRIDGE                                                                
 LARGEST CORRECTION TO ROTATION    -6.840E-08   AT NODE      20001   DOF  5
   INSTANCE: SUSPENSIONBRIDGE                                                                
          THE MOMENT    EQUILIBRIUM RESPONSE WAS LINEAR IN THIS INCREMENT
          TIME INCREMENT MAY NOW INCREASE TO    3.375E-08

 ITERATION SUMMARY FOR THE INCREMENT:   1 TOTAL ITERATIONS, OF WHICH
   0 ARE SEVERE DISCONTINUITY ITERATIONS AND  1 ARE EQUILIBRIUM ITERATIONS.

 TIME INCREMENT COMPLETED  2.250E-08,  FRACTION OF STEP COMPLETED  5.750E-08
 STEP TIME COMPLETED       5.750E-08,  TOTAL TIME COMPLETED         1.00    


  INCREMENT     5 STARTS. ATTEMPT NUMBER  1, TIME INCREMENT  3.375E-08

  NUMBER OF EQUATIONS =      4416     NUMBER OF RHS =    1
  NUMBER OF FLOATING PT. OPERATIONS =  1.12E+06

  USING THE DIRECT SOLVER WITH   4 PROCESSORS

     CHECK POINT   START OF SOLVER    

     CHECK POINT  END OF SOLVER       

       ELAPSED USER TIME (SEC)      =  0.10000    
       ELAPSED SYSTEM TIME (SEC)    =   0.0000    
       ELAPSED TOTAL CPU TIME (SEC) =  0.10000    
       ELAPSED WALLCLOCK TIME (SEC) =          0

               CONVERGENCE CHECKS FOR EQUILIBRIUM ITERATION     1


 AVERAGE FORCE                      8.154E+06   TIME AVG. FORCE       8.154E+06
 LARGEST RESIDUAL FORCE             7.712E-02   AT NODE     201004   DOF  1
   INSTANCE: SUSPENSIONBRIDGE                                                                
 LARGEST INCREMENT OF DISP.        -5.043E-03   AT NODE      10025   DOF  3
   INSTANCE: SUSPENSIONBRIDGE                                                                
 LARGEST CORRECTION TO DISP.        1.775E-05   AT NODE      10103   DOF  3
   INSTANCE: SUSPENSIONBRIDGE                                                                
          THE FORCE     EQUILIBRIUM RESPONSE WAS LINEAR IN THIS INCREMENT

 AVERAGE MOMENT                     2.955E+07   TIME AVG. MOMENT      2.955E+07
 LARGEST RESIDUAL MOMENT           -0.106       AT NODE     200042   DOF  6
   INSTANCE: SUSPENSIONBRIDGE                                                                
 LARGEST INCREMENT OF ROTATION      6.090E-05   AT NODE      10001   DOF  5
   INSTANCE: SUSPENSIONBRIDGE                                                                
 LARGEST CORRECTION TO ROTATION    -1.752E-07   AT NODE      10001   DOF  5
   INSTANCE: SUSPENSIONBRIDGE                                                                
          THE MOMENT    EQUILIBRIUM RESPONSE WAS LINEAR IN THIS INCREMENT
          TIME INCREMENT MAY NOW INCREASE TO    5.063E-08

 ITERATION SUMMARY FOR THE INCREMENT:   1 TOTAL ITERATIONS, OF WHICH
   0 ARE SEVERE DISCONTINUITY ITERATIONS AND  1 ARE EQUILIBRIUM ITERATIONS.

 TIME INCREMENT COMPLETED  3.375E-08,  FRACTION OF STEP COMPLETED  9.125E-08
 STEP TIME COMPLETED       9.125E-08,  TOTAL TIME COMPLETED         1.00    


  INCREMENT     6 STARTS. ATTEMPT NUMBER  1, TIME INCREMENT  5.063E-08

  NUMBER OF EQUATIONS =      4416     NUMBER OF RHS =    1
  NUMBER OF FLOATING PT. OPERATIONS =  1.12E+06

  USING THE DIRECT SOLVER WITH   4 PROCESSORS

     CHECK POINT   START OF SOLVER    

     CHECK POINT  END OF SOLVER       

       ELAPSED USER TIME (SEC)      =   0.0000    
       ELAPSED SYSTEM TIME (SEC)    =   0.0000    
       ELAPSED TOTAL CPU TIME (SEC) =   0.0000    
       ELAPSED WALLCLOCK TIME (SEC) =          0

               CONVERGENCE CHECKS FOR EQUILIBRIUM ITERATION     1


 AVERAGE FORCE                      8.154E+06   TIME AVG. FORCE       8.154E+06
 LARGEST RESIDUAL FORCE            -8.133E-02   AT NODE     101104   DOF  1
   INSTANCE: SUSPENSIONBRIDGE                                                                
 LARGEST INCREMENT OF DISP.        -7.526E-03   AT NODE      20025   DOF  3
   INSTANCE: SUSPENSIONBRIDGE                                                                
 LARGEST CORRECTION TO DISP.        4.289E-05   AT NODE      20103   DOF  3
   INSTANCE: SUSPENSIONBRIDGE                                                                
          THE FORCE     EQUILIBRIUM RESPONSE WAS LINEAR IN THIS INCREMENT

 AVERAGE MOMENT                     2.955E+07   TIME AVG. MOMENT      2.955E+07
 LARGEST RESIDUAL MOMENT            4.340E-02   AT NODE     101002   DOF  5
   INSTANCE: SUSPENSIONBRIDGE                                                                
 LARGEST INCREMENT OF ROTATION      9.089E-05   AT NODE      20001   DOF  5
   INSTANCE: SUSPENSIONBRIDGE                                                                
 LARGEST CORRECTION TO ROTATION    -4.640E-07   AT NODE      10001   DOF  5
   INSTANCE: SUSPENSIONBRIDGE                                                                
          THE MOMENT    EQUILIBRIUM RESPONSE WAS LINEAR IN THIS INCREMENT
          TIME INCREMENT MAY NOW INCREASE TO    7.594E-08

 ITERATION SUMMARY FOR THE INCREMENT:   1 TOTAL ITERATIONS, OF WHICH
   0 ARE SEVERE DISCONTINUITY ITERATIONS AND  1 ARE EQUILIBRIUM ITERATIONS.

 TIME INCREMENT COMPLETED  5.063E-08,  FRACTION OF STEP COMPLETED  1.419E-07
 STEP TIME COMPLETED       1.419E-07,  TOTAL TIME COMPLETED         1.00    


  INCREMENT     7 STARTS. ATTEMPT NUMBER  1, TIME INCREMENT  7.594E-08

  NUMBER OF EQUATIONS =      4416     NUMBER OF RHS =    1
  NUMBER OF FLOATING PT. OPERATIONS =  1.12E+06

  USING THE DIRECT SOLVER WITH   4 PROCESSORS

     CHECK POINT   START OF SOLVER    

     CHECK POINT  END OF SOLVER       

       ELAPSED USER TIME (SEC)      =  0.10000    
       ELAPSED SYSTEM TIME (SEC)    =  0.10000    
       ELAPSED TOTAL CPU TIME (SEC) =  0.20000    
       ELAPSED WALLCLOCK TIME (SEC) =          0

               CONVERGENCE CHECKS FOR EQUILIBRIUM ITERATION     1


 AVERAGE FORCE                      8.154E+06   TIME AVG. FORCE       8.154E+06
 LARGEST RESIDUAL FORCE            -0.117       AT NODE     201103   DOF  1
   INSTANCE: SUSPENSIONBRIDGE                                                                
 LARGEST INCREMENT OF DISP.        -1.118E-02   AT NODE      20025   DOF  3
   INSTANCE: SUSPENSIONBRIDGE                                                                
 LARGEST CORRECTION TO DISP.        1.068E-04   AT NODE      10025   DOF  3
   INSTANCE: SUSPENSIONBRIDGE                                                                
          THE FORCE     EQUILIBRIUM EQUATIONS HAVE CONVERGED

 AVERAGE MOMENT                     2.955E+07   TIME AVG. MOMENT      2.955E+07
 LARGEST RESIDUAL MOMENT            8.094E-02   AT NODE     100013   DOF  6
   INSTANCE: SUSPENSIONBRIDGE                                                                
 LARGEST INCREMENT OF ROTATION      1.351E-04   AT NODE      20001   DOF  5
   INSTANCE: SUSPENSIONBRIDGE                                                                
 LARGEST CORRECTION TO ROTATION    -1.268E-06   AT NODE      10001   DOF  5
   INSTANCE: SUSPENSIONBRIDGE                                                                
          THE MOMENT    EQUILIBRIUM RESPONSE WAS LINEAR IN THIS INCREMENT
          TIME INCREMENT MAY NOW INCREASE TO    1.139E-07

 ITERATION SUMMARY FOR THE INCREMENT:   1 TOTAL ITERATIONS, OF WHICH
   0 ARE SEVERE DISCONTINUITY ITERATIONS AND  1 ARE EQUILIBRIUM ITERATIONS.

 TIME INCREMENT COMPLETED  7.594E-08,  FRACTION OF STEP COMPLETED  2.178E-07
 STEP TIME COMPLETED       2.178E-07,  TOTAL TIME COMPLETED         1.00    


  INCREMENT     8 STARTS. ATTEMPT NUMBER  1, TIME INCREMENT  1.139E-07

  NUMBER OF EQUATIONS =      4416     NUMBER OF RHS =    1
  NUMBER OF FLOATING PT. OPERATIONS =  1.12E+06

  USING THE DIRECT SOLVER WITH   4 PROCESSORS

     CHECK POINT   START OF SOLVER    

     CHECK POINT  END OF SOLVER       

       ELAPSED USER TIME (SEC)      =  0.10000    
       ELAPSED SYSTEM TIME (SEC)    =   0.0000    
       ELAPSED TOTAL CPU TIME (SEC) =  0.10000    
       ELAPSED WALLCLOCK TIME (SEC) =          0

               CONVERGENCE CHECKS FOR EQUILIBRIUM ITERATION     1


 AVERAGE FORCE                      8.154E+06   TIME AVG. FORCE       8.154E+06
 LARGEST RESIDUAL FORCE            -0.174       AT NODE      20051   DOF  3
   INSTANCE: SUSPENSIONBRIDGE                                                                
 LARGEST INCREMENT OF DISP.        -1.648E-02   AT NODE      10025   DOF  3
   INSTANCE: SUSPENSIONBRIDGE                                                                
 LARGEST CORRECTION TO DISP.        2.971E-04   AT NODE      20025   DOF  3
   INSTANCE: SUSPENSIONBRIDGE                                                                
 ESTIMATE OF DISP.    CORRECTION    5.979E-08
 FORCE     EQUILIB. ACCEPTED BASED ON SMALL RESIDUAL AND ESTIMATED CORRECTION

 AVERAGE MOMENT                     2.955E+07   TIME AVG. MOMENT      2.955E+07
 LARGEST RESIDUAL MOMENT           -0.142       AT NODE     200013   DOF  6
   INSTANCE: SUSPENSIONBRIDGE                                                                
 LARGEST INCREMENT OF ROTATION      1.991E-04   AT NODE      10001   DOF  5
   INSTANCE: SUSPENSIONBRIDGE                                                                
 LARGEST CORRECTION TO ROTATION    -3.540E-06   AT NODE      20001   DOF  5
   INSTANCE: SUSPENSIONBRIDGE                                                                
          THE MOMENT    EQUILIBRIUM RESPONSE WAS LINEAR IN THIS INCREMENT
          TIME INCREMENT MAY NOW INCREASE TO    1.709E-07

 ITERATION SUMMARY FOR THE INCREMENT:   1 TOTAL ITERATIONS, OF WHICH
   0 ARE SEVERE DISCONTINUITY ITERATIONS AND  1 ARE EQUILIBRIUM ITERATIONS.

 TIME INCREMENT COMPLETED  1.139E-07,  FRACTION OF STEP COMPLETED  3.317E-07
 STEP TIME COMPLETED       3.317E-07,  TOTAL TIME COMPLETED         1.00    


  INCREMENT     9 STARTS. ATTEMPT NUMBER  1, TIME INCREMENT  1.709E-07

  NUMBER OF EQUATIONS =      4416     NUMBER OF RHS =    1
  NUMBER OF FLOATING PT. OPERATIONS =  1.12E+06

  USING THE DIRECT SOLVER WITH   4 PROCESSORS

     CHECK POINT   START OF SOLVER    

     CHECK POINT  END OF SOLVER       

       ELAPSED USER TIME (SEC)      =  0.20000    
       ELAPSED SYSTEM TIME (SEC)    =   0.0000    
       ELAPSED TOTAL CPU TIME (SEC) =  0.20000    
       ELAPSED WALLCLOCK TIME (SEC) =          0

               CONVERGENCE CHECKS FOR EQUILIBRIUM ITERATION     1


 AVERAGE FORCE                      8.154E+06   TIME AVG. FORCE       8.154E+06
 LARGEST RESIDUAL FORCE             -1.28       AT NODE      10051   DOF  3
   INSTANCE: SUSPENSIONBRIDGE                                                                
 LARGEST INCREMENT OF DISP.        -2.389E-02   AT NODE      20025   DOF  3
   INSTANCE: SUSPENSIONBRIDGE                                                                
 LARGEST CORRECTION TO DISP.        8.257E-04   AT NODE      10024   DOF  3
   INSTANCE: SUSPENSIONBRIDGE                                                                
 ESTIMATE OF DISP.    CORRECTION    5.668E-07
 FORCE     EQUILIB. ACCEPTED BASED ON SMALL RESIDUAL AND ESTIMATED CORRECTION

 AVERAGE MOMENT                     2.955E+07   TIME AVG. MOMENT      2.955E+07
 LARGEST RESIDUAL MOMENT            0.237       AT NODE     210013   DOF  6
   INSTANCE: SUSPENSIONBRIDGE                                                                
 LARGEST INCREMENT OF ROTATION      2.887E-04   AT NODE      20001   DOF  5
   INSTANCE: SUSPENSIONBRIDGE                                                                
 LARGEST CORRECTION TO ROTATION    -9.864E-06   AT NODE      10001   DOF  5
   INSTANCE: SUSPENSIONBRIDGE                                                                
          THE MOMENT    EQUILIBRIUM RESPONSE WAS LINEAR IN THIS INCREMENT
          TIME INCREMENT MAY NOW INCREASE TO    2.563E-07

 ITERATION SUMMARY FOR THE INCREMENT:   1 TOTAL ITERATIONS, OF WHICH
   0 ARE SEVERE DISCONTINUITY ITERATIONS AND  1 ARE EQUILIBRIUM ITERATIONS.

 TIME INCREMENT COMPLETED  1.709E-07,  FRACTION OF STEP COMPLETED  5.026E-07
 STEP TIME COMPLETED       5.026E-07,  TOTAL TIME COMPLETED         1.00    


  INCREMENT    10 STARTS. ATTEMPT NUMBER  1, TIME INCREMENT  2.563E-07

  NUMBER OF EQUATIONS =      4416     NUMBER OF RHS =    1
  NUMBER OF FLOATING PT. OPERATIONS =  1.12E+06

  USING THE DIRECT SOLVER WITH   4 PROCESSORS

     CHECK POINT   START OF SOLVER    

     CHECK POINT  END OF SOLVER       

       ELAPSED USER TIME (SEC)      =  0.10000    
       ELAPSED SYSTEM TIME (SEC)    =  0.10000    
       ELAPSED TOTAL CPU TIME (SEC) =  0.20000    
       ELAPSED WALLCLOCK TIME (SEC) =          0

               CONVERGENCE CHECKS FOR EQUILIBRIUM ITERATION     1


 AVERAGE FORCE                      8.154E+06   TIME AVG. FORCE       8.154E+06
 LARGEST RESIDUAL FORCE             -8.84       AT NODE      20051   DOF  3
   INSTANCE: SUSPENSIONBRIDGE                                                                
 LARGEST INCREMENT OF DISP.        -3.363E-02   AT NODE      10025   DOF  3
   INSTANCE: SUSPENSIONBRIDGE                                                                
 LARGEST CORRECTION TO DISP.        2.201E-03   AT NODE      20024   DOF  3
   INSTANCE: SUSPENSIONBRIDGE                                                                
 ESTIMATE OF DISP.    CORRECTION    4.950E-06
 FORCE     EQUILIB. ACCEPTED BASED ON SMALL RESIDUAL AND ESTIMATED CORRECTION

 AVERAGE MOMENT                     2.955E+07   TIME AVG. MOMENT      2.955E+07
 LARGEST RESIDUAL MOMENT           -0.661       AT NODE      10128   DOF  5
   INSTANCE: SUSPENSIONBRIDGE                                                                
 LARGEST INCREMENT OF ROTATION      4.068E-04   AT NODE      10001   DOF  5
   INSTANCE: SUSPENSIONBRIDGE                                                                
 LARGEST CORRECTION TO ROTATION    -2.633E-05   AT NODE      20001   DOF  5
   INSTANCE: SUSPENSIONBRIDGE                                                                
 ESTIMATE OF ROTATION CORRECTION   -1.037E-07
 MOMENT    EQUILIB. ACCEPTED BASED ON SMALL RESIDUAL AND ESTIMATED CORRECTION
          TIME INCREMENT MAY NOW INCREASE TO    3.844E-07

 ITERATION SUMMARY FOR THE INCREMENT:   1 TOTAL ITERATIONS, OF WHICH
   0 ARE SEVERE DISCONTINUITY ITERATIONS AND  1 ARE EQUILIBRIUM ITERATIONS.

 TIME INCREMENT COMPLETED  2.563E-07,  FRACTION OF STEP COMPLETED  7.589E-07
 STEP TIME COMPLETED       7.589E-07,  TOTAL TIME COMPLETED         1.00    


  INCREMENT    11 STARTS. ATTEMPT NUMBER  1, TIME INCREMENT  3.844E-07

  NUMBER OF EQUATIONS =      4416     NUMBER OF RHS =    1
  NUMBER OF FLOATING PT. OPERATIONS =  1.12E+06

  USING THE DIRECT SOLVER WITH   4 PROCESSORS

     CHECK POINT   START OF SOLVER    

     CHECK POINT  END OF SOLVER       

       ELAPSED USER TIME (SEC)      =  0.10000    
       ELAPSED SYSTEM TIME (SEC)    =  0.10000    
       ELAPSED TOTAL CPU TIME (SEC) =  0.20000    
       ELAPSED WALLCLOCK TIME (SEC) =          1

               CONVERGENCE CHECKS FOR EQUILIBRIUM ITERATION     1


 AVERAGE FORCE                      8.154E+06   TIME AVG. FORCE       8.154E+06
 LARGEST RESIDUAL FORCE             -49.7       AT NODE      10051   DOF  3
   INSTANCE: SUSPENSIONBRIDGE                                                                
 LARGEST INCREMENT OF DISP.        -4.518E-02   AT NODE      10025   DOF  3
   INSTANCE: SUSPENSIONBRIDGE                                                                
 LARGEST CORRECTION TO DISP.        5.268E-03   AT NODE      20024   DOF  3
   INSTANCE: SUSPENSIONBRIDGE                                                                
 ESTIMATE OF DISP.    CORRECTION    3.352E-05
 FORCE     EQUILIB. ACCEPTED BASED ON SMALL RESIDUAL AND ESTIMATED CORRECTION

 AVERAGE MOMENT                     2.956E+07   TIME AVG. MOMENT      2.955E+07
 LARGEST RESIDUAL MOMENT            -3.42       AT NODE      10128   DOF  5
   INSTANCE: SUSPENSIONBRIDGE                                                                
 LARGEST INCREMENT OF ROTATION      5.471E-04   AT NODE      20001   DOF  5
   INSTANCE: SUSPENSIONBRIDGE                                                                
 LARGEST CORRECTION TO ROTATION    -6.306E-05   AT NODE      10001   DOF  5
   INSTANCE: SUSPENSIONBRIDGE                                                                
 ESTIMATE OF ROTATION CORRECTION   -6.745E-07
 MOMENT    EQUILIB. ACCEPTED BASED ON SMALL RESIDUAL AND ESTIMATED CORRECTION
          TIME INCREMENT MAY NOW INCREASE TO    5.767E-07

 ITERATION SUMMARY FOR THE INCREMENT:   1 TOTAL ITERATIONS, OF WHICH
   0 ARE SEVERE DISCONTINUITY ITERATIONS AND  1 ARE EQUILIBRIUM ITERATIONS.

 TIME INCREMENT COMPLETED  3.844E-07,  FRACTION OF STEP COMPLETED  1.143E-06
 STEP TIME COMPLETED       1.143E-06,  TOTAL TIME COMPLETED         1.00    


  INCREMENT    12 STARTS. ATTEMPT NUMBER  1, TIME INCREMENT  5.767E-07

  NUMBER OF EQUATIONS =      4416     NUMBER OF RHS =    1
  NUMBER OF FLOATING PT. OPERATIONS =  1.12E+06

  USING THE DIRECT SOLVER WITH   4 PROCESSORS

     CHECK POINT   START OF SOLVER    

     CHECK POINT  END OF SOLVER       

       ELAPSED USER TIME (SEC)      =   0.0000    
       ELAPSED SYSTEM TIME (SEC)    =   0.0000    
       ELAPSED TOTAL CPU TIME (SEC) =   0.0000    
       ELAPSED WALLCLOCK TIME (SEC) =          0

               CONVERGENCE CHECKS FOR EQUILIBRIUM ITERATION     1


 AVERAGE FORCE                      7.890E+06   TIME AVG. FORCE       8.132E+06
 LARGEST RESIDUAL FORCE             -194.       AT NODE      20051   DOF  3
   INSTANCE: SUSPENSIONBRIDGE                                                                
 LARGEST INCREMENT OF DISP.        -5.730E-02   AT NODE      10025   DOF  3
   INSTANCE: SUSPENSIONBRIDGE                                                                
 LARGEST CORRECTION TO DISP.        1.048E-02   AT NODE      10024   DOF  3
   INSTANCE: SUSPENSIONBRIDGE                                                                
 ESTIMATE OF DISP.    CORRECTION    1.432E-04
 FORCE     EQUILIB. ACCEPTED BASED ON SMALL RESIDUAL AND ESTIMATED CORRECTION

 AVERAGE MOMENT                     2.956E+07   TIME AVG. MOMENT      2.955E+07
 LARGEST RESIDUAL MOMENT            -12.5       AT NODE      20128   DOF  5
   INSTANCE: SUSPENSIONBRIDGE                                                                
 LARGEST INCREMENT OF ROTATION      6.956E-04   AT NODE      10001   DOF  5
   INSTANCE: SUSPENSIONBRIDGE                                                                
 LARGEST CORRECTION TO ROTATION    -1.251E-04   AT NODE      20001   DOF  5
   INSTANCE: SUSPENSIONBRIDGE                                                                
 ESTIMATE OF ROTATION CORRECTION   -2.875E-06
 MOMENT    EQUILIB. ACCEPTED BASED ON SMALL RESIDUAL AND ESTIMATED CORRECTION
          TIME INCREMENT MAY NOW INCREASE TO    8.650E-07

 ITERATION SUMMARY FOR THE INCREMENT:   1 TOTAL ITERATIONS, OF WHICH
   0 ARE SEVERE DISCONTINUITY ITERATIONS AND  1 ARE EQUILIBRIUM ITERATIONS.

 TIME INCREMENT COMPLETED  5.767E-07,  FRACTION OF STEP COMPLETED  1.720E-06
 STEP TIME COMPLETED       1.720E-06,  TOTAL TIME COMPLETED         1.00    


  INCREMENT    13 STARTS. ATTEMPT NUMBER  1, TIME INCREMENT  8.650E-07

  NUMBER OF EQUATIONS =      4416     NUMBER OF RHS =    1
  NUMBER OF FLOATING PT. OPERATIONS =  1.12E+06

  USING THE DIRECT SOLVER WITH   4 PROCESSORS

     CHECK POINT   START OF SOLVER    

     CHECK POINT  END OF SOLVER       

       ELAPSED USER TIME (SEC)      =   0.0000    
       ELAPSED SYSTEM TIME (SEC)    =   0.0000    
       ELAPSED TOTAL CPU TIME (SEC) =   0.0000    
       ELAPSED WALLCLOCK TIME (SEC) =          0

               CONVERGENCE CHECKS FOR EQUILIBRIUM ITERATION     1


 AVERAGE FORCE                      6.215E+06   TIME AVG. FORCE       7.984E+06
 LARGEST RESIDUAL FORCE             -497.       AT NODE      10051   DOF  3
   INSTANCE: SUSPENSIONBRIDGE                                                                
 LARGEST INCREMENT OF DISP.        -6.913E-02   AT NODE      10025   DOF  3
   INSTANCE: SUSPENSIONBRIDGE                                                                
 LARGEST CORRECTION TO DISP.        1.682E-02   AT NODE      20024   DOF  3
   INSTANCE: SUSPENSIONBRIDGE                                                                
 ESTIMATE OF DISP.    CORRECTION    3.596E-04
 FORCE     EQUILIB. ACCEPTED BASED ON SMALL RESIDUAL AND ESTIMATED CORRECTION

 AVERAGE MOMENT                     2.957E+07   TIME AVG. MOMENT      2.955E+07
 LARGEST RESIDUAL MOMENT            -30.3       AT NODE      10128   DOF  5
   INSTANCE: SUSPENSIONBRIDGE                                                                
 LARGEST INCREMENT OF ROTATION      8.443E-04   AT NODE      10001   DOF  5
   INSTANCE: SUSPENSIONBRIDGE                                                                
 LARGEST CORRECTION TO ROTATION    -1.990E-04   AT NODE      20001   DOF  5
   INSTANCE: SUSPENSIONBRIDGE                                                                
 ESTIMATE OF ROTATION CORRECTION    7.444E-06
 MOMENT    EQUILIB. ACCEPTED BASED ON SMALL RESIDUAL AND ESTIMATED CORRECTION
          TIME INCREMENT MAY NOW INCREASE TO    1.297E-06

 ITERATION SUMMARY FOR THE INCREMENT:   1 TOTAL ITERATIONS, OF WHICH
   0 ARE SEVERE DISCONTINUITY ITERATIONS AND  1 ARE EQUILIBRIUM ITERATIONS.

 TIME INCREMENT COMPLETED  8.650E-07,  FRACTION OF STEP COMPLETED  2.585E-06
 STEP TIME COMPLETED       2.585E-06,  TOTAL TIME COMPLETED         1.00    


  INCREMENT    14 STARTS. ATTEMPT NUMBER  1, TIME INCREMENT  1.297E-06

  NUMBER OF EQUATIONS =      4416     NUMBER OF RHS =    1
  NUMBER OF FLOATING PT. OPERATIONS =  1.12E+06

  USING THE DIRECT SOLVER WITH   4 PROCESSORS

     CHECK POINT   START OF SOLVER    

     CHECK POINT  END OF SOLVER       

       ELAPSED USER TIME (SEC)      =  0.10000    
       ELAPSED SYSTEM TIME (SEC)    =   0.0000    
       ELAPSED TOTAL CPU TIME (SEC) =  0.10000    
       ELAPSED WALLCLOCK TIME (SEC) =          0

               CONVERGENCE CHECKS FOR EQUILIBRIUM ITERATION     1


 AVERAGE FORCE                      4.954E+06   TIME AVG. FORCE       7.768E+06
 LARGEST RESIDUAL FORCE             -997.       AT NODE      20051   DOF  3
   INSTANCE: SUSPENSIONBRIDGE                                                                
 LARGEST INCREMENT OF DISP.        -7.995E-02   AT NODE      20025   DOF  3
   INSTANCE: SUSPENSIONBRIDGE                                                                
 LARGEST CORRECTION TO DISP.        2.375E-02   AT NODE      10025   DOF  3
   INSTANCE: SUSPENSIONBRIDGE                                                                
 ESTIMATE OF DISP.    CORRECTION    6.837E-04
 FORCE     EQUILIB. ACCEPTED BASED ON SMALL RESIDUAL AND ESTIMATED CORRECTION

 AVERAGE MOMENT                     2.958E+07   TIME AVG. MOMENT      2.956E+07
 LARGEST RESIDUAL MOMENT            -58.0       AT NODE      10128   DOF  5
   INSTANCE: SUSPENSIONBRIDGE                                                                
 LARGEST INCREMENT OF ROTATION      9.865E-04   AT NODE      20001   DOF  5
   INSTANCE: SUSPENSIONBRIDGE                                                                
 LARGEST CORRECTION TO ROTATION    -2.799E-04   AT NODE      10001   DOF  5
   INSTANCE: SUSPENSIONBRIDGE                                                                
          ROTATION CORRECTION TOO LARGE COMPARED TO ROTATION INCREMENT

  NUMBER OF EQUATIONS =      4416     NUMBER OF RHS =    1
  NUMBER OF FLOATING PT. OPERATIONS =  1.12E+06

  USING THE DIRECT SOLVER WITH   4 PROCESSORS

     CHECK POINT   START OF SOLVER    

     CHECK POINT  END OF SOLVER       

       ELAPSED USER TIME (SEC)      =  0.10000    
       ELAPSED SYSTEM TIME (SEC)    =  0.10000    
       ELAPSED TOTAL CPU TIME (SEC) =  0.20000    
       ELAPSED WALLCLOCK TIME (SEC) =          0

               CONVERGENCE CHECKS FOR EQUILIBRIUM ITERATION     2


 AVERAGE FORCE                      6.378E+06   TIME AVG. FORCE       7.869E+06
 LARGEST RESIDUAL FORCE             -11.5       AT NODE      10051   DOF  3
   INSTANCE: SUSPENSIONBRIDGE                                                                
 LARGEST INCREMENT OF DISP.        -7.777E-02   AT NODE      20025   DOF  3
   INSTANCE: SUSPENSIONBRIDGE                                                                
 LARGEST CORRECTION TO DISP.        2.229E-03   AT NODE      20021   DOF  3
   INSTANCE: SUSPENSIONBRIDGE                                                                
 ESTIMATE OF DISP.    CORRECTION    2.580E-05
 FORCE     EQUILIB. ACCEPTED BASED ON SMALL RESIDUAL AND ESTIMATED CORRECTION

 AVERAGE MOMENT                     2.958E+07   TIME AVG. MOMENT      2.956E+07
 LARGEST RESIDUAL MOMENT           -0.863       AT NODE      10128   DOF  5
   INSTANCE: SUSPENSIONBRIDGE                                                                
 LARGEST INCREMENT OF ROTATION      9.506E-04   AT NODE      20001   DOF  5
   INSTANCE: SUSPENSIONBRIDGE                                                                
 LARGEST CORRECTION TO ROTATION    -3.592E-05   AT NODE      20001   DOF  5
   INSTANCE: SUSPENSIONBRIDGE                                                                
 ESTIMATE OF ROTATION CORRECTION   -5.342E-07
 MOMENT    EQUILIB. ACCEPTED BASED ON SMALL RESIDUAL AND ESTIMATED CORRECTION
          TIME INCREMENT MAY NOW INCREASE TO    1.946E-06

 ITERATION SUMMARY FOR THE INCREMENT:   2 TOTAL ITERATIONS, OF WHICH
   0 ARE SEVERE DISCONTINUITY ITERATIONS AND  2 ARE EQUILIBRIUM ITERATIONS.

 TIME INCREMENT COMPLETED  1.297E-06,  FRACTION OF STEP COMPLETED  3.882E-06
 STEP TIME COMPLETED       3.882E-06,  TOTAL TIME COMPLETED         1.00    


  INCREMENT    15 STARTS. ATTEMPT NUMBER  1, TIME INCREMENT  1.946E-06

  NUMBER OF EQUATIONS =      4416     NUMBER OF RHS =    1
  NUMBER OF FLOATING PT. OPERATIONS =  1.12E+06

  USING THE DIRECT SOLVER WITH   4 PROCESSORS

     CHECK POINT   START OF SOLVER    

     CHECK POINT  END OF SOLVER       

       ELAPSED USER TIME (SEC)      =  0.10000    
       ELAPSED SYSTEM TIME (SEC)    =   0.0000    
       ELAPSED TOTAL CPU TIME (SEC) =  0.10000    
       ELAPSED WALLCLOCK TIME (SEC) =          0

               CONVERGENCE CHECKS FOR EQUILIBRIUM ITERATION     1


 AVERAGE FORCE                      4.250E+06   TIME AVG. FORCE       7.628E+06
 LARGEST RESIDUAL FORCE            -2.288E+03   AT NODE      20155   DOF  3
   INSTANCE: SUSPENSIONBRIDGE                                                                
 LARGEST INCREMENT OF DISP.        -8.184E-02   AT NODE      20025   DOF  3
   INSTANCE: SUSPENSIONBRIDGE                                                                
 LARGEST CORRECTION TO DISP.        3.483E-02   AT NODE      20024   DOF  3
   INSTANCE: SUSPENSIONBRIDGE                                                                
          DISP.    CORRECTION TOO LARGE COMPARED TO DISP.    INCREMENT

 AVERAGE MOMENT                     2.959E+07   TIME AVG. MOMENT      2.956E+07
 LARGEST RESIDUAL MOMENT            -138.       AT NODE      10128   DOF  5
   INSTANCE: SUSPENSIONBRIDGE                                                                
 LARGEST INCREMENT OF ROTATION      1.006E-03   AT NODE      10001   DOF  5
   INSTANCE: SUSPENSIONBRIDGE                                                                
 LARGEST CORRECTION TO ROTATION    -4.199E-04   AT NODE      20001   DOF  5
   INSTANCE: SUSPENSIONBRIDGE                                                                
          ROTATION CORRECTION TOO LARGE COMPARED TO ROTATION INCREMENT

  NUMBER OF EQUATIONS =      4416     NUMBER OF RHS =    1
  NUMBER OF FLOATING PT. OPERATIONS =  1.12E+06

  USING THE DIRECT SOLVER WITH   4 PROCESSORS

     CHECK POINT   START OF SOLVER    

     CHECK POINT  END OF SOLVER       

       ELAPSED USER TIME (SEC)      =  0.10000    
       ELAPSED SYSTEM TIME (SEC)    =  0.10000    
       ELAPSED TOTAL CPU TIME (SEC) =  0.20000    
       ELAPSED WALLCLOCK TIME (SEC) =          0

               CONVERGENCE CHECKS FOR EQUILIBRIUM ITERATION     2


 AVERAGE FORCE                      5.275E+06   TIME AVG. FORCE       7.696E+06
 LARGEST RESIDUAL FORCE             -4.29       AT NODE      10155   DOF  3
   INSTANCE: SUSPENSIONBRIDGE                                                                
 LARGEST INCREMENT OF DISP.        -8.334E-02   AT NODE      10025   DOF  3
   INSTANCE: SUSPENSIONBRIDGE                                                                
 LARGEST CORRECTION TO DISP.       -1.507E-03   AT NODE      10025   DOF  3
   INSTANCE: SUSPENSIONBRIDGE                                                                
 ESTIMATE OF DISP.    CORRECTION   -2.825E-06
 FORCE     EQUILIB. ACCEPTED BASED ON SMALL RESIDUAL AND ESTIMATED CORRECTION

 AVERAGE MOMENT                     2.960E+07   TIME AVG. MOMENT      2.956E+07
 LARGEST RESIDUAL MOMENT            0.615       AT NODE     210013   DOF  6
   INSTANCE: SUSPENSIONBRIDGE                                                                
 LARGEST INCREMENT OF ROTATION      1.020E-03   AT NODE      10001   DOF  5
   INSTANCE: SUSPENSIONBRIDGE                                                                
 LARGEST CORRECTION TO ROTATION    -1.440E-05   AT NODE      10200   DOF  5
   INSTANCE: SUSPENSIONBRIDGE                                                                
 ESTIMATE OF ROTATION CORRECTION    6.394E-08
 MOMENT    EQUILIB. ACCEPTED BASED ON SMALL RESIDUAL AND ESTIMATED CORRECTION
          TIME INCREMENT MAY NOW INCREASE TO    2.919E-06

 ITERATION SUMMARY FOR THE INCREMENT:   2 TOTAL ITERATIONS, OF WHICH
   0 ARE SEVERE DISCONTINUITY ITERATIONS AND  2 ARE EQUILIBRIUM ITERATIONS.

 TIME INCREMENT COMPLETED  1.946E-06,  FRACTION OF STEP COMPLETED  5.829E-06
 STEP TIME COMPLETED       5.829E-06,  TOTAL TIME COMPLETED         1.00    


  INCREMENT    16 STARTS. ATTEMPT NUMBER  1, TIME INCREMENT  2.919E-06

  NUMBER OF EQUATIONS =      4416     NUMBER OF RHS =    1
  NUMBER OF FLOATING PT. OPERATIONS =  1.12E+06

  USING THE DIRECT SOLVER WITH   4 PROCESSORS

     CHECK POINT   START OF SOLVER    

     CHECK POINT  END OF SOLVER       

       ELAPSED USER TIME (SEC)      =   0.0000    
       ELAPSED SYSTEM TIME (SEC)    =   0.0000    
       ELAPSED TOTAL CPU TIME (SEC) =   0.0000    
       ELAPSED WALLCLOCK TIME (SEC) =          0

               CONVERGENCE CHECKS FOR EQUILIBRIUM ITERATION     1


 AVERAGE FORCE                      4.313E+06   TIME AVG. FORCE       7.485E+06
 LARGEST RESIDUAL FORCE            -2.036E+03   AT NODE      20155   DOF  3
   INSTANCE: SUSPENSIONBRIDGE                                                                
 LARGEST INCREMENT OF DISP.        -9.164E-02   AT NODE      10025   DOF  3
   INSTANCE: SUSPENSIONBRIDGE                                                                
 LARGEST CORRECTION TO DISP.        3.337E-02   AT NODE      20181   DOF  3
   INSTANCE: SUSPENSIONBRIDGE                                                                
          DISP.    CORRECTION TOO LARGE COMPARED TO DISP.    INCREMENT

 AVERAGE MOMENT                     2.962E+07   TIME AVG. MOMENT      2.956E+07
 LARGEST RESIDUAL MOMENT            -95.0       AT NODE      10128   DOF  5
   INSTANCE: SUSPENSIONBRIDGE                                                                
 LARGEST INCREMENT OF ROTATION      1.145E-03   AT NODE      20001   DOF  5
   INSTANCE: SUSPENSIONBRIDGE                                                                
 LARGEST CORRECTION TO ROTATION     3.853E-04   AT NODE      10205   DOF  5
   INSTANCE: SUSPENSIONBRIDGE                                                                
          ROTATION CORRECTION TOO LARGE COMPARED TO ROTATION INCREMENT

  NUMBER OF EQUATIONS =      4416     NUMBER OF RHS =    1
  NUMBER OF FLOATING PT. OPERATIONS =  1.12E+06

  USING THE DIRECT SOLVER WITH   4 PROCESSORS

     CHECK POINT   START OF SOLVER    

     CHECK POINT  END OF SOLVER       

       ELAPSED USER TIME (SEC)      =   0.0000    
       ELAPSED SYSTEM TIME (SEC)    =   0.0000    
       ELAPSED TOTAL CPU TIME (SEC) =   0.0000    
       ELAPSED WALLCLOCK TIME (SEC) =          0

               CONVERGENCE CHECKS FOR EQUILIBRIUM ITERATION     2


 AVERAGE FORCE                      5.200E+06   TIME AVG. FORCE       7.540E+06
 LARGEST RESIDUAL FORCE             -7.22       AT NODE      20155   DOF  3
   INSTANCE: SUSPENSIONBRIDGE                                                                
 LARGEST INCREMENT OF DISP.        -9.353E-02   AT NODE      10025   DOF  3
   INSTANCE: SUSPENSIONBRIDGE                                                                
 LARGEST CORRECTION TO DISP.       -1.889E-03   AT NODE      20025   DOF  3
   INSTANCE: SUSPENSIONBRIDGE                                                                
 ESTIMATE OF DISP.    CORRECTION   -6.698E-06
 FORCE     EQUILIB. ACCEPTED BASED ON SMALL RESIDUAL AND ESTIMATED CORRECTION

 AVERAGE MOMENT                     2.962E+07   TIME AVG. MOMENT      2.956E+07
 LARGEST RESIDUAL MOMENT           -0.746       AT NODE      20128   DOF  5
   INSTANCE: SUSPENSIONBRIDGE                                                                
 LARGEST INCREMENT OF ROTATION      1.164E-03   AT NODE      20001   DOF  5
   INSTANCE: SUSPENSIONBRIDGE                                                                
 LARGEST CORRECTION TO ROTATION     1.860E-05   AT NODE      10001   DOF  5
   INSTANCE: SUSPENSIONBRIDGE                                                                
 ESTIMATE OF ROTATION CORRECTION    1.461E-07
 MOMENT    EQUILIB. ACCEPTED BASED ON SMALL RESIDUAL AND ESTIMATED CORRECTION
          TIME INCREMENT MAY NOW INCREASE TO    4.379E-06

 ITERATION SUMMARY FOR THE INCREMENT:   2 TOTAL ITERATIONS, OF WHICH
   0 ARE SEVERE DISCONTINUITY ITERATIONS AND  2 ARE EQUILIBRIUM ITERATIONS.

 TIME INCREMENT COMPLETED  2.919E-06,  FRACTION OF STEP COMPLETED  8.748E-06
 STEP TIME COMPLETED       8.748E-06,  TOTAL TIME COMPLETED         1.00    


  INCREMENT    17 STARTS. ATTEMPT NUMBER  1, TIME INCREMENT  4.379E-06

  NUMBER OF EQUATIONS =      4416     NUMBER OF RHS =    1
  NUMBER OF FLOATING PT. OPERATIONS =  1.12E+06

  USING THE DIRECT SOLVER WITH   4 PROCESSORS

     CHECK POINT   START OF SOLVER    

     CHECK POINT  END OF SOLVER       

       ELAPSED USER TIME (SEC)      =   0.0000    
       ELAPSED SYSTEM TIME (SEC)    =  0.10000    
       ELAPSED TOTAL CPU TIME (SEC) =  0.10000    
       ELAPSED WALLCLOCK TIME (SEC) =          0

               CONVERGENCE CHECKS FOR EQUILIBRIUM ITERATION     1


 AVERAGE FORCE                      4.034E+06   TIME AVG. FORCE       7.334E+06
 LARGEST RESIDUAL FORCE            -3.290E+03   AT NODE      10155   DOF  3
   INSTANCE: SUSPENSIONBRIDGE                                                                
 LARGEST INCREMENT OF DISP.        -9.926E-02   AT NODE      10025   DOF  3
   INSTANCE: SUSPENSIONBRIDGE                                                                
 LARGEST CORRECTION TO DISP.        4.104E-02   AT NODE      20025   DOF  3
   INSTANCE: SUSPENSIONBRIDGE                                                                
          DISP.    CORRECTION TOO LARGE COMPARED TO DISP.    INCREMENT

 AVERAGE MOMENT                     2.964E+07   TIME AVG. MOMENT      2.957E+07
[...]
   INSTANCE: SUSPENSIONBRIDGE                                                                
          THE MOMENT    EQUILIBRIUM EQUATIONS HAVE CONVERGED

 ITERATION SUMMARY FOR THE INCREMENT:   1 TOTAL ITERATIONS, OF WHICH
   0 ARE SEVERE DISCONTINUITY ITERATIONS AND  1 ARE EQUILIBRIUM ITERATIONS.

 TIME INCREMENT COMPLETED  0.225    ,  FRACTION OF STEP COMPLETED   1.00    
 STEP TIME COMPLETED        1.00    ,  TOTAL TIME COMPLETED         4.00    
1

   Abaqus 3DEXPERIENCE R2019x                                  Date 03-Jun-2022   Time 10:27:11
   For use by NTNU NORGES TEKNISK NATURVITENSKAPELIGE UNIVERSITET under license from Dassault Systemes or its subsidiary.

                                                                                 
                                                                                 
 STEP    5     INCREMENT     1     STEP TIME    0.00    


                        S T E P       5     C A L C U L A T I O N   O F   E I G E N V A L U E S

                                            F O R   N A T U R A L   F R E Q U E N C I E S



                                                                                          

     THE LANCZOS EIGENSOLVER IS USED FOR THIS ANALYSIS
     Abaqus WILL COMPUTE UNCOUPLED
      STRUCTURAL AND ACOUSTIC MODES
     NUMBER OF EIGENVALUES                    100
     HIGHEST FREQUENCY OF INTEREST                  1.00000E+18
     MAXIMUM NUMBER OF STEPS WITHIN RUN               35
     BLOCK SIZE FOR LANCZOS PROCEDURE                  7
     THE EIGENVECTORS ARE SCALED SO THAT 
      THE LARGEST DISPLACEMENT ENTRY IN EACH VECTOR
      IS UNITY
                              INITIAL STRESS AND DISPLACEMENT EFFECTS ARE
                              INCLUDED IN THE STIFFNESS MATRIX

     THIS IS A LINEAR PERTURBATION STEP.
     ALL LOADS ARE DEFINED AS CHANGE IN LOAD TO THE REFERENCE STATE

          LARGE DISPLACEMENT THEORY WILL BE USED

     EXTRAPOLATION WILL NOT BE USED

     CHARACTERISTIC ELEMENT LENGTH      14.8    

     DETAILS REGARDING ACTUAL SOLUTION WAVEFRONT REQUESTED

     DETAILED OUTPUT OF DIAGNOSTICS TO DATABASE REQUESTED

     PRINT OF INCREMENT NUMBER, TIME, ETC., TO THE MESSAGE FILE EVERY     1  INCREMENTS

 ***NOTE: SHARED MEMORY EXECUTION OF THE ELEMENT CALCULATIONS HAS BEEN TURNED 
          OFF DUE TO THE FOLLOWING FEATURE: SIM ARCHITECTURE IS NOT ACTIVE

     ELEMENT OPERATIONS WILL NOT BE CARRIED OUT IN PARALLEL

     COLLECTING STEP CONSTRAINT INFORMATION FOR OVERCONSTRAINT CHECKS

     CHECK POINT   START OF SOLVER    
  
 COMPUTER PRECISION USED BY ABAQUS       2.22045e-16
 CONVERGENCE CRITERION FOR LANCZOS RUN   1.81899e-12
  
 NUMBER OF EQUATIONS                                                        8418
 NUMBER OF UNRESTRAINED DEGREES OF FREEDOM                                  8354
 HEURISTIC SCALE FOR THE FIRST NONZERO EIGENVALUES (PROBLEM SCALE)   3.80408e-04
 INITIAL SHIFT VALUE                                                 0.00000e+00
  
 NUMBER OF CPUS USED BY DIRECT SOLVER     4
  
 NUMBER OF NEGATIVE EIGENVALUES     0
 NUMBER OF POSITIVE EIGENVALUES  8418
 NUMBER OF NEGATIVE EIGENVALUES NOT ASSOCIATED WITH LAGRANGE MULTIPLIERS     0
 NUMBER OF LAGRANGE MULTIPLIERS     0
  
 COMPUTATIONAL INTERVAL FOR THE INITIAL LANCZOS RUN
 
 EIGENVALUES NEEDED TO THE RIGHT OF SHIFT VALUE  100
 EIGENVALUES NEEDED TO THE LEFT OF SHIFT VALUE     0
 RIGHT BOUNDARY OF THE COMPUTATIONAL INTERVAL   3.95574e+37
 LEFT BOUNDARY OF THE COMPUTATIONAL INTERVAL   -3.95574e+37
  
 LANCZOS RUN TERMINATED. NUMBER OF STEPS:   16
 TERMINATION BASED ON THE COST-PER-EIGENVALUE CRITERION
  
 NUMBER OF ACCEPTED EIGENVALUES   37
  
 ACCEPTED EIGENVALUES
   1.29757e-01  4.67169e-01  7.85471e-01  8.11049e-01  1.52298e+00  1.60342e+00
   1.88918e+00  1.90144e+00  2.19315e+00  2.25949e+00  2.54934e+00  3.22155e+00
   3.26419e+00  4.41780e+00  4.63674e+00  4.96149e+00  5.49277e+00  5.50609e+00
   5.62528e+00  5.79790e+00  6.24627e+00  6.32568e+00  6.32645e+00  6.52531e+00
   6.54335e+00  6.61325e+00  6.64768e+00  6.64865e+00  6.83327e+00  7.01696e+00
   7.40189e+00  8.32561e+00  8.73998e+00  1.02340e+01  1.02971e+01  1.05462e+01
   1.05666e+01
  
 FACTORIZATION WITH NEW SHIFT VALUE IS REQUIRED
  
 TRUST INTERVALS AFTER LANCZOS RUN AND COMPRESSION
  
 NUMBER OF TRUST INTERVALS    1
  
 -------------------------------------------------------------------------------------
 | KEY | INSIDE |      INERTIAS     |  SENTINELS  |   OUTSIDE   |  NEED TO FIND      |
 |      ENDS OF INTERVAL     |     ENDS OF SENTINEL      |   COMPUTATIONAL INTERVAL  |
 -------------------------------------------------------------------------------------
 |  +  |      0 |        0        0 |     0     0 |     0     0 |      0   100       |
 | -3.95574e+37  0.00000e+00 | -3.95574e+37  0.00000e+00 | -3.95574e+37  3.95574e+37 |
 -------------------------------------------------------------------------------------
  
 DATA FOR CHOOSING SHIFT
  
 NUMBER OF EIGENVALUES NEEDED IN THE PRIMARY TRUST INTERVAL  100
  
 NUMBER OF MODES FORMING SENTINEL TO THE RIGHT   37
 SHIFT RIGHT         5.25117e+01
  
 NUMBER OF MODES FORMING SENTINEL TO THE LEFT     0
 SHIFT LEFT          0.00000e+00
  
 SHIFTING TO THE RIGHT DIRECTION
 NEW SHIFT           5.25117e+01
  
 NUMBER OF NEGATIVE EIGENVALUES    75
 NUMBER OF POSITIVE EIGENVALUES  8343
 NUMBER OF NEGATIVE EIGENVALUES NOT ASSOCIATED WITH LAGRANGE MULTIPLIERS    75
 NUMBER OF LAGRANGE MULTIPLIERS     0
  
 NEW LANCZOS RUN IS REQUIRED
  
 TYPE OF RUN: EXPAND THE TRUST INTERVAL TO THE RIGHT
 EIGENVALUES NEEDED TO THE RIGHT    25
 EIGENVALUES NEEDED TO THE LEFT     38
 RIGHT BOUNDARY OF THE INTERVAL   3.95574e+37
 LEFT BOUNDARY OF THE INTERVAL    1.05666e+01
  
 TRUST INTERVALS AFTER FACTORIZATION AND COMPRESSION
  
 -------------------------------------------------------------------------------------
 | KEY | INSIDE |      INERTIAS     |  SENTINELS  |   OUTSIDE   |  NEED TO FIND      |
 |      ENDS OF INTERVAL     |     ENDS OF SENTINEL      |   COMPUTATIONAL INTERVAL  |
 -------------------------------------------------------------------------------------
 |  +  |      0 |        0        0 |     0    37 |     0    37 |      0   100       |
 | -3.95574e+37  0.00000e+00 | -3.95574e+37  1.05666e+01 | -3.95574e+37  3.95574e+37 |
 -------------------------------------------------------------------------------------
 |  -  |      0 |       75       75 |     0     0 |     0     0 |     38    25       |
 |  5.25117e+01  5.25117e+01 |  5.25117e+01  5.25117e+01 |  1.05666e+01  3.95574e+37 |
 -------------------------------------------------------------------------------------
  
 LANCZOS RUN TERMINATED. NUMBER OF STEPS:   15
 TERMINATION BASED ON THE COST-PER-EIGENVALUE CRITERION
  
 NUMBER OF ACCEPTED EIGENVALUES   65
  
 ACCEPTED EIGENVALUES
   1.29757e-01  4.67169e-01  7.85471e-01  8.11049e-01  1.52298e+00  1.60342e+00
   1.88918e+00  1.90144e+00  2.19315e+00  2.25949e+00  2.54934e+00  3.22155e+00
   3.26419e+00  4.41780e+00  4.63674e+00  4.96149e+00  5.49277e+00  5.50609e+00
   5.62528e+00  5.79790e+00  6.24627e+00  6.32568e+00  6.32645e+00  6.52531e+00
   6.54335e+00  6.61325e+00  6.64768e+00  6.64865e+00  6.83327e+00  7.01696e+00
   7.40189e+00  8.32561e+00  8.73998e+00  1.02340e+01  1.02971e+01  1.05462e+01
   1.05666e+01  3.53774e+01  3.71651e+01  3.80986e+01  4.15100e+01  4.21407e+01
   4.22683e+01  4.40427e+01  4.58141e+01  4.60032e+01  4.80184e+01  4.89524e+01
   4.95027e+01  5.44558e+01  5.49689e+01  5.69305e+01  5.69317e+01  5.70045e+01
   5.70584e+01  5.70843e+01  5.70937e+01  5.77163e+01  5.81596e+01  5.86407e+01
   6.15615e+01  6.25737e+01  6.36702e+01  6.37575e+01  6.67495e+01
  
 FACTORIZATION WITH NEW SHIFT VALUE IS REQUIRED
  
 TRUST INTERVALS AFTER LANCZOS RUN AND COMPRESSION
  
 NUMBER OF TRUST INTERVALS    2
  
 -------------------------------------------------------------------------------------
 | KEY | INSIDE |      INERTIAS     |  SENTINELS  |   OUTSIDE   |  NEED TO FIND      |
 |      ENDS OF INTERVAL     |     ENDS OF SENTINEL      |   COMPUTATIONAL INTERVAL  |
 -------------------------------------------------------------------------------------
 |  +  |      0 |        0        0 |     0    37 |     0    37 |      0   100       |
 | -3.95574e+37  0.00000e+00 | -3.95574e+37  1.05666e+01 | -3.95574e+37  3.95574e+37 |
 -------------------------------------------------------------------------------------
 |  -  |      0 |       75       75 |     0     0 |     0     0 |     38    25       |
 |  5.25117e+01  5.25117e+01 |  5.25117e+01  5.25117e+01 |  1.05666e+01  3.95574e+37 |
 -------------------------------------------------------------------------------------
  
 DATA FOR CHOOSING SHIFT
  
 NUMBER OF EIGENVALUES NEEDED IN THE PRIMARY TRUST INTERVAL  100
  
 NUMBER OF MODES FORMING SENTINEL TO THE RIGHT   16
 SHIFT RIGHT         9.29113e+01
  
 NUMBER OF MODES FORMING SENTINEL TO THE LEFT    12
 SHIFT LEFT          1.84145e+01
  
 SHIFT IS DETERMINED IN ORDER TO CLOSE GAP BETWEEN TRUST INTERVALS
 NEW SHIFT           1.93344e+01
  
 NUMBER OF NEGATIVE EIGENVALUES    45
 NUMBER OF POSITIVE EIGENVALUES  8373
 NUMBER OF NEGATIVE EIGENVALUES NOT ASSOCIATED WITH LAGRANGE MULTIPLIERS    45
 NUMBER OF LAGRANGE MULTIPLIERS     0
  
 NEW LANCZOS RUN IS REQUIRED
  
 TYPE OF RUN: FILLING GAPS
 EIGENVALUES NEEDED TO THE RIGHT    18
 EIGENVALUES NEEDED TO THE LEFT      8
 RIGHT BOUNDARY OF THE INTERVAL   3.53774e+01
 LEFT BOUNDARY OF THE INTERVAL    1.05666e+01
  
 TRUST INTERVALS AFTER FACTORIZATION AND COMPRESSION
  
 -------------------------------------------------------------------------------------
 | KEY | INSIDE |      INERTIAS     |  SENTINELS  |   OUTSIDE   |  NEED TO FIND      |
 |      ENDS OF INTERVAL     |     ENDS OF SENTINEL      |   COMPUTATIONAL INTERVAL  |
 -------------------------------------------------------------------------------------
 |  +  |      0 |        0        0 |     0    37 |     0    37 |      0   100       |
 | -3.95574e+37  0.00000e+00 | -3.95574e+37  1.05666e+01 | -3.95574e+37  3.95574e+37 |
 -------------------------------------------------------------------------------------
 |  -  |      0 |       75       75 |    12    16 |    12    16 |     38    25       |
 |  5.25117e+01  5.25117e+01 |  3.53774e+01  6.67495e+01 |  1.05666e+01  3.95574e+37 |
 -------------------------------------------------------------------------------------
 |  -  |      0 |       45       45 |     0     0 |     0     0 |      8    18       |
 |  1.93344e+01  1.93344e+01 |  1.93344e+01  1.93344e+01 |  1.05666e+01  3.53774e+01 |
 -------------------------------------------------------------------------------------
  
 LANCZOS RUN TERMINATED. NUMBER OF STEPS:   13
 ALL THE EIGENVALUES REQUESTED ON THIS LANCZOS RUN ARE FOUND
  
 NUMBER OF ACCEPTED EIGENVALUES   91
  
 ACCEPTED EIGENVALUES
   1.29757e-01  4.67169e-01  7.85471e-01  8.11049e-01  1.52298e+00  1.60342e+00
   1.88918e+00  1.90144e+00  2.19315e+00  2.25949e+00  2.54934e+00  3.22155e+00
   3.26419e+00  4.41780e+00  4.63674e+00  4.96149e+00  5.49277e+00  5.50609e+00
   5.62528e+00  5.79790e+00  6.24627e+00  6.32568e+00  6.32645e+00  6.52531e+00
   6.54335e+00  6.61325e+00  6.64768e+00  6.64865e+00  6.83327e+00  7.01696e+00
   7.40189e+00  8.32561e+00  8.73998e+00  1.02340e+01  1.02971e+01  1.05462e+01
   1.05666e+01  1.42953e+01  1.43713e+01  1.47438e+01  1.62755e+01  1.74052e+01
   1.78456e+01  1.90019e+01  1.91353e+01  2.00895e+01  2.34177e+01  2.42443e+01
   2.47091e+01  2.48395e+01  2.49959e+01  2.52406e+01  2.53019e+01  2.53024e+01
   2.53115e+01  2.53547e+01  2.53554e+01  2.69069e+01  2.74857e+01  3.06362e+01
   3.10315e+01  3.45774e+01  3.45823e+01  3.53774e+01  3.71651e+01  3.80986e+01
   4.15100e+01  4.21407e+01  4.22683e+01  4.40427e+01  4.58141e+01  4.60032e+01
   4.80184e+01  4.89524e+01  4.95027e+01  5.44558e+01  5.49689e+01  5.69305e+01
   5.69317e+01  5.70045e+01  5.70584e+01  5.70843e+01  5.70937e+01  5.77163e+01
   5.81596e+01  5.86407e+01  6.15615e+01  6.25737e+01  6.36702e+01  6.37575e+01
   6.67495e+01
  
 FACTORIZATION WITH NEW SHIFT VALUE IS REQUIRED
  
 TRUST INTERVALS AFTER LANCZOS RUN AND COMPRESSION
  
 NUMBER OF TRUST INTERVALS    1
  
 -------------------------------------------------------------------------------------
 | KEY | INSIDE |      INERTIAS     |  SENTINELS  |   OUTSIDE   |  NEED TO FIND      |
 |      ENDS OF INTERVAL     |     ENDS OF SENTINEL      |   COMPUTATIONAL INTERVAL  |
 -------------------------------------------------------------------------------------
 |  +  |     75 |        0       75 |     0    16 |     0    16 |      0    25       |
 | -3.95574e+37  5.25117e+01 | -3.95574e+37  6.67495e+01 | -3.95574e+37  3.95574e+37 |
 -------------------------------------------------------------------------------------
 SENTINEL WAS NOT INCLUDED INTO THE TRUST INTERVAL LIST. SHIFT   1.93344e+01
  
 DATA FOR CHOOSING SHIFT
  
 NUMBER OF EIGENVALUES NEEDED IN THE PRIMARY TRUST INTERVAL   25
  
 NUMBER OF MODES FORMING SENTINEL TO THE RIGHT   18
 SHIFT RIGHT         4.96777e+01
  
 NUMBER OF MODES FORMING SENTINEL TO THE LEFT     8
 SHIFT LEFT         -1.69318e+00
  
 SHIFTING TO THE RIGHT DIRECTION
 NEW SHIFT           9.29113e+01
  
 NUMBER OF NEGATIVE EIGENVALUES   100
 NUMBER OF POSITIVE EIGENVALUES  8318
 NUMBER OF NEGATIVE EIGENVALUES NOT ASSOCIATED WITH LAGRANGE MULTIPLIERS   100
 NUMBER OF LAGRANGE MULTIPLIERS     0
  
 NEW LANCZOS RUN IS REQUIRED
  
 TYPE OF RUN: EXPAND THE TRUST INTERVAL TO THE RIGHT
 EIGENVALUES NEEDED TO THE RIGHT     0
 EIGENVALUES NEEDED TO THE LEFT      9
 RIGHT BOUNDARY OF THE INTERVAL   9.29113e+01
 LEFT BOUNDARY OF THE INTERVAL    6.67495e+01
  
 TRUST INTERVALS AFTER FACTORIZATION AND COMPRESSION
  
 -------------------------------------------------------------------------------------
 | KEY | INSIDE |      INERTIAS     |  SENTINELS  |   OUTSIDE   |  NEED TO FIND      |
 |      ENDS OF INTERVAL     |     ENDS OF SENTINEL      |   COMPUTATIONAL INTERVAL  |
 -------------------------------------------------------------------------------------
 |  +  |     75 |        0       75 |     0    16 |     0    16 |      0    25       |
 | -3.95574e+37  5.25117e+01 | -3.95574e+37  6.67495e+01 | -3.95574e+37  3.95574e+37 |
 -------------------------------------------------------------------------------------
 |  -  |      0 |      100      100 |     0     0 |     0     0 |      9     0       |
 |  9.29113e+01  9.29113e+01 |  9.29113e+01  9.29113e+01 |  6.67495e+01  9.29113e+01 |
 -------------------------------------------------------------------------------------
  
 LANCZOS RUN TERMINATED. NUMBER OF STEPS:   17
 ALL THE EIGENVALUES REQUESTED ON THIS LANCZOS RUN ARE FOUND
  
 NUMBER OF ACCEPTED EIGENVALUES  100
  
 ACCEPTED EIGENVALUES
   1.29757e-01  4.67169e-01  7.85471e-01  8.11049e-01  1.52298e+00  1.60342e+00
   1.88918e+00  1.90144e+00  2.19315e+00  2.25949e+00  2.54934e+00  3.22155e+00
   3.26419e+00  4.41780e+00  4.63674e+00  4.96149e+00  5.49277e+00  5.50609e+00
   5.62528e+00  5.79790e+00  6.24627e+00  6.32568e+00  6.32645e+00  6.52531e+00
   6.54335e+00  6.61325e+00  6.64768e+00  6.64865e+00  6.83327e+00  7.01696e+00
   7.40189e+00  8.32561e+00  8.73998e+00  1.02340e+01  1.02971e+01  1.05462e+01
   1.05666e+01  1.42953e+01  1.43713e+01  1.47438e+01  1.62755e+01  1.74052e+01
   1.78456e+01  1.90019e+01  1.91353e+01  2.00895e+01  2.34177e+01  2.42443e+01
   2.47091e+01  2.48395e+01  2.49959e+01  2.52406e+01  2.53019e+01  2.53024e+01
   2.53115e+01  2.53547e+01  2.53554e+01  2.69069e+01  2.74857e+01  3.06362e+01
   3.10315e+01  3.45774e+01  3.45823e+01  3.53774e+01  3.71651e+01  3.80986e+01
   4.15100e+01  4.21407e+01  4.22683e+01  4.40427e+01  4.58141e+01  4.60032e+01
   4.80184e+01  4.89524e+01  4.95027e+01  5.44558e+01  5.49689e+01  5.69305e+01
   5.69317e+01  5.70045e+01  5.70584e+01  5.70843e+01  5.70937e+01  5.77163e+01
   5.81596e+01  5.86407e+01  6.15615e+01  6.25737e+01  6.36702e+01  6.37575e+01
   6.67495e+01  7.37037e+01  7.37970e+01  7.40182e+01  8.33029e+01  8.37770e+01
   8.45855e+01  8.92372e+01  9.06384e+01  9.21868e+01
  
 THE REQUIRED NUMBER OF EIGENVALUES IS FOUND
  
 FINAL TRUST INTERVALS AFTER SUCCESSFUL LANCZOS RUN
  
 NUMBER OF TRUST INTERVALS    1
  
 -------------------------------------------------------------------------------------
 | KEY | INSIDE |      INERTIAS     |  SENTINELS  |   OUTSIDE   |  NEED TO FIND      |
 |      ENDS OF INTERVAL     |     ENDS OF SENTINEL      |   COMPUTATIONAL INTERVAL  |
 -------------------------------------------------------------------------------------
 |  +  |    100 |        0      100 |     0     0 |     0     0 |      0     0       |
 | -3.95574e+37  9.29113e+01 | -3.95574e+37  9.29113e+01 | -3.95574e+37  9.29113e+01 |
 -------------------------------------------------------------------------------------
  
 FIRST EIGENVALUE REQUESTED BY THE USER     1
  
 EIGENVALUES REQUESTED BY THE USER
   1.29757e-01  4.67169e-01  7.85471e-01  8.11049e-01  1.52298e+00  1.60342e+00
   1.88918e+00  1.90144e+00  2.19315e+00  2.25949e+00  2.54934e+00  3.22155e+00
   3.26419e+00  4.41780e+00  4.63674e+00  4.96149e+00  5.49277e+00  5.50609e+00
   5.62528e+00  5.79790e+00  6.24627e+00  6.32568e+00  6.32645e+00  6.52531e+00
   6.54335e+00  6.61325e+00  6.64768e+00  6.64865e+00  6.83327e+00  7.01696e+00
   7.40189e+00  8.32561e+00  8.73998e+00  1.02340e+01  1.02971e+01  1.05462e+01
   1.05666e+01  1.42953e+01  1.43713e+01  1.47438e+01  1.62755e+01  1.74052e+01
   1.78456e+01  1.90019e+01  1.91353e+01  2.00895e+01  2.34177e+01  2.42443e+01
   2.47091e+01  2.48395e+01  2.49959e+01  2.52406e+01  2.53019e+01  2.53024e+01
   2.53115e+01  2.53547e+01  2.53554e+01  2.69069e+01  2.74857e+01  3.06362e+01
   3.10315e+01  3.45774e+01  3.45823e+01  3.53774e+01  3.71651e+01  3.80986e+01
   4.15100e+01  4.21407e+01  4.22683e+01  4.40427e+01  4.58141e+01  4.60032e+01
   4.80184e+01  4.89524e+01  4.95027e+01  5.44558e+01  5.49689e+01  5.69305e+01
   5.69317e+01  5.70045e+01  5.70584e+01  5.70843e+01  5.70937e+01  5.77163e+01
   5.81596e+01  5.86407e+01  6.15615e+01  6.25737e+01  6.36702e+01  6.37575e+01
   6.67495e+01  7.37037e+01  7.37970e+01  7.40182e+01  8.33029e+01  8.37770e+01
   8.45855e+01  8.92372e+01  9.06384e+01  9.21868e+01
  
 EIGENVALUE EXTRACTION USING THE LANCZOS EIGENSOLVER IS COMPLETE
 NUMBER OF LANCZOS RUNS       :   4
 NUMBER OF LANCZOS STEPS      :  61
 NUMBER OF FACTORIZATIONS     :   4
 NUMBER OF BACK SUBSTITUTIONS :  63

     CHECK POINT  END OF SOLVER       

       ELAPSED USER TIME (SEC)      =   4.5000    
       ELAPSED SYSTEM TIME (SEC)    =  0.30000    
       ELAPSED TOTAL CPU TIME (SEC) =   4.8000    
       ELAPSED WALLCLOCK TIME (SEC) =          3


          THE ANALYSIS HAS BEEN COMPLETED



     ANALYSIS SUMMARY:
     TOTAL OF        109  INCREMENTS
                       0  CUTBACKS IN AUTOMATIC INCREMENTATION
                     206  ITERATIONS INCLUDING CONTACT ITERATIONS IF PRESENT
                     273  PASSES THROUGH THE EQUATION SOLVER OF WHICH 
                     210  INVOLVE MATRIX DECOMPOSITION, INCLUDING
                       0  DECOMPOSITION(S) OF THE MASS MATRIX
                       1  REORDERING OF EQUATIONS TO MINIMIZE WAVEFRONT
                       0  ADDITIONAL RESIDUAL EVALUATIONS FOR LINE SEARCHES
                       0  ADDITIONAL OPERATOR EVALUATIONS FOR LINE SEARCHES
                     133  WARNING MESSAGES DURING USER INPUT PROCESSING
                       4  WARNING MESSAGES DURING ANALYSIS
                       0  ANALYSIS WARNINGS ARE NUMERICAL PROBLEM MESSAGES
                       3  ANALYSIS WARNINGS ARE NEGATIVE EIGENVALUE MESSAGES
                       0  ERROR MESSAGES



     JOB TIME SUMMARY
       USER TIME (SEC)      =   33.700    
       SYSTEM TIME (SEC)    =   8.5000    
       TOTAL CPU TIME (SEC) =   42.200    
       WALLCLOCK TIME (SEC) =         28
