 Abaqus/Standard 3DEXPERIENCE R2019x                  DATE 24-May-2022 TIME 12:24:24
 SUMMARY OF JOB INFORMATION:
 STEP  INC ATT SEVERE EQUIL TOTAL  TOTAL      STEP       INC OF       DOF    IF
               DISCON ITERS ITERS  TIME/    TIME/LPF    TIME/LPF    MONITOR RIKS
               ITERS               FREQ
   1     1   1     0     2     2  0.100      0.100      0.1000    
   1     2   1     0     2     2  0.200      0.200      0.1000    
   1     3   1     0     2     2  0.350      0.350      0.1500    
   1     4   1     0     2     2  0.575      0.575      0.2250    
   1     5   1     0     2     2  0.913      0.913      0.3375    
   1     6   1     0     2     2  1.00       1.00       0.08750   
   2     1   1     0     2     2  1.00       1.00e-08   1.000e-08 
   2     2   1     0     1     1  1.00       2.00e-08   1.000e-08 
   2     3   1     0     1     1  1.00       3.50e-08   1.500e-08 
   2     4   1     0     1     1  1.00       5.75e-08   2.250e-08 
   2     5   1     0     1     1  1.00       9.13e-08   3.375e-08 
   2     6   1     0     1     1  1.00       1.42e-07   5.063e-08 
   2     7   1     0     1     1  1.00       2.18e-07   7.594e-08 
   2     8   1     0     1     1  1.00       3.32e-07   1.139e-07 
   2     9   1     0     1     1  1.00       5.03e-07   1.709e-07 
   2    10   1     0     1     1  1.00       7.59e-07   2.563e-07 
   2    11   1     0     1     1  1.00       1.14e-06   3.844e-07 
   2    12   1     0     1     1  1.00       1.72e-06   5.767e-07 
   2    13   1     0     2     2  1.00       2.58e-06   8.650e-07 
   2    14   1     0     2     2  1.00       3.88e-06   1.297e-06 
   2    15   1     0     2     2  1.00       5.83e-06   1.946e-06 
   2    16   1     0     2     2  1.00       8.75e-06   2.919e-06 
   2    17   1     0     2     2  1.00       1.31e-05   4.379e-06 
   2    18   1     0     2     2  1.00       1.97e-05   6.568e-06 
   2    19   1     0     2     2  1.00       2.95e-05   9.853e-06 
   2    20   1     0     2     2  1.00       4.43e-05   1.478e-05 
   2    21   1     0     2     2  1.00       6.65e-05   2.217e-05 
   2    22   1     0     2     2  1.00       9.97e-05   3.325e-05 
   2    23   1     0     2     2  1.00       0.000150   4.988e-05 
   2    24   1     0     2     2  1.00       0.000224   7.482e-05 
   2    25   1     0     2     2  1.00       0.000337   0.0001122 
   2    26   1     0     2     2  1.00       0.000505   0.0001683 
   2    27   1     0     2     2  1.00       0.000758   0.0002525 
   2    28   1     0     2     2  1.00       0.00114    0.0003788 
   2    29   1     0     2     2  1.00       0.00170    0.0005682 
   2    30   1     0     2     2  1.00       0.00256    0.0008522 
   2    31   1     0     2     2  1.00       0.00384    0.001278  
   2    32   1     0     2     2  1.01       0.00575    0.001918  
   2    33   1     0     2     2  1.01       0.00863    0.002876  
   2    34   1     0     2     2  1.01       0.0129     0.004314  
   2    35   1     0     4     4  1.02       0.0194     0.006472  
   2    36   1     0     4     4  1.03       0.0291     0.009707  
   2    37   1     0     4     4  1.04       0.0437     0.01456   
   2    38   1     0     6     6  1.07       0.0655     0.02184   
   2    39   1     0     6     6  1.09       0.0874     0.02184   
   2    40   1     0     4     4  1.11       0.109      0.02184   
   2    41   1     0     2     2  1.13       0.131      0.02184   
   2    42   1     0     3     3  1.16       0.164      0.03276   
   2    43   1     0     3     3  1.21       0.213      0.04914   
   2    44   1     0     2     2  1.29       0.287      0.07372   
   2    45   1     0     3     3  1.40       0.397      0.1106    
   2    46   1     0     3     3  1.56       0.563      0.1659    
   2    47   1     0     2     2  1.81       0.812      0.2488    
   2    48   1     0     2     2  2.00       1.00       0.1881    
   3     1   1     0     4     4  2.00       1.00e-08   1.000e-08 
   3     2   1     0     4     4  2.00       2.00e-08   1.000e-08 
   3     3   1     0     2     2  2.00       3.50e-08   1.500e-08 
   3     4   1     0     1     1  2.00       5.75e-08   2.250e-08 
   3     5   1     0     1     1  2.00       9.13e-08   3.375e-08 
   3     6   1     0     2     2  2.00       1.42e-07   5.063e-08 
   3     7   1     0     1     1  2.00       2.18e-07   7.594e-08 
   3     8   1     0     1     1  2.00       3.32e-07   1.139e-07 
   3     9   1     0     2     2  2.00       5.03e-07   1.709e-07 
   3    10   1     0     2     2  2.00       7.59e-07   2.563e-07 
   3    11   1     0     1     1  2.00       1.14e-06   3.844e-07 
   3    12   1     0     2     2  2.00       1.72e-06   5.767e-07 
   3    13   1     0     1     1  2.00       2.58e-06   8.650e-07 
   3    14   1U    0     4     4  2.00       2.58e-06   1.297e-06 
   3    14   2     0     1     1  2.00       2.91e-06   3.244e-07 
   3    15   1     0     3     3  2.00       3.40e-06   4.865e-07 
   3    16   1     0     1     1  2.00       4.13e-06   7.298e-07 
   3    17   1     0     2     2  2.00       5.22e-06   1.095e-06 
   3    18   1     0     3     3  2.00       6.86e-06   1.642e-06 
   3    19   1     0     3     3  2.00       9.33e-06   2.463e-06 
   3    20   1     0     3     3  2.00       1.30e-05   3.695e-06 
   3    21   1     0     3     3  2.00       1.86e-05   5.542e-06 
   3    22   1     0     1     1  2.00       2.69e-05   8.313e-06 
   3    23   1     0     1     1  2.00       3.93e-05   1.247e-05 
   3    24   1     0     1     1  2.00       5.80e-05   1.870e-05 
   3    25   1     0     1     1  2.00       8.61e-05   2.806e-05 
   3    26   1     0     1     1  2.00       0.000128   4.209e-05 
   3    27   1     0     1     1  2.00       0.000191   6.313e-05 
   3    28   1     0     1     1  2.00       0.000286   9.469e-05 
   3    29   1     0     1     1  2.00       0.000428   0.0001420 
   3    30   1     0     1     1  2.00       0.000641   0.0002131 
   3    31   1     0     2     2  2.00       0.000961   0.0003196 
   3    32   1     0     1     1  2.00       0.00144    0.0004794 
   3    33   1     0     1     1  2.00       0.00216    0.0007191 
   3    34   1     0     1     1  2.00       0.00324    0.001079  
   3    35   1     0     1     1  2.00       0.00486    0.001618  
   3    36   1     0     1     1  2.01       0.00728    0.002427  
   3    37   1     0     1     1  2.01       0.0109     0.003640  
   3    38   1     0     1     1  2.02       0.0164     0.005460  
   3    39   1     0     5     5  2.02       0.0246     0.008191  
   3    40   1     0     5     5  2.03       0.0328     0.008191  
   3    41   1     0     2     2  2.04       0.0410     0.008191  
   3    42   1     0     2     2  2.05       0.0491     0.008191  
   3    43   1     0     2     2  2.06       0.0614     0.01229   
   3    44   1     0     2     2  2.08       0.0799     0.01843   
   3    45   1     0     2     2  2.11       0.108      0.02764   
   3    46   1     0     2     2  2.15       0.149      0.04146   
   3    47   1     0     2     2  2.21       0.211      0.06220   
   3    48   1     0     2     2  2.30       0.304      0.09330   
   3    49   1     0     2     2  2.44       0.444      0.1399    
   3    50   1     0     2     2  2.65       0.654      0.2099    
   3    51   1     0     2     2  2.97       0.969      0.3149    
   3    52   1     0     2     2  3.00       1.00       0.03080   
   4     1   1     0     3     3  3.10       0.100      0.1000    
   4     2   1     0     4     4  3.20       0.200      0.1000    
   4     3   1     0     2     2  3.35       0.350      0.1500    
   4     4   1     0     2     2  3.58       0.575      0.2250    
   4     5   1     0     2     2  3.91       0.913      0.3375    
   4     6   1     0     1     1  4.00       1.00       0.08750   
   5     1   1     0     0     0  4.00       1.00e-36   1.000e-36 
                          
 THE ANALYSIS HAS COMPLETED SUCCESSFULLY
