1

   Abaqus 3DEXPERIENCE R2019x                                  Date 03-Jun-2022   Time 10:26:40
   For use by NTNU NORGES TEKNISK NATURVITENSKAPELIGE UNIVERSITET under license from Dassault Systemes or its subsidiary.



                         The Abaqus Software is a product of:

                           Dassault Systemes SIMULIA Corp.
                           1301 Atwood Avenue, Suite 101W
                              Johnston, RI 02919, USA
 


                   The Abaqus Software is available only under license
                   from Dassault Systemes or its subsidiary and may be
                   used or reproduced only in accordance with the terms
                   of such license.
 
                          On machine LAPTOP-OVSCEET7 
                          you are authorized to run
                          Abaqus/Standard until 30-Sep-2022

                          Your site id is: 100000000001981 


 
                    For assistance or any other information you may
                    obtain contact information for your local office
                    from the world wide web at:

                      http://www.3ds.com/products/simulia/locations/

 
                * * * * * * * * * * * * * * * * * * * * * * * * * * * * * * 
                *                                                         * 
                *                   *****************                     * 
                *                   *  N O T I C E  *                     * 
                *                   *****************                     * 
                *                                                         * 
                *                                                         * 
                *               Abaqus 3DEXPERIENCE R2019x                * 
                *                                                         * 
                *          BUILD ID: 2018_09_24-20.41.51 157541           * 
                *                                                         * 
                *                                                         * 
                *  Please make sure you are using                         * 
                *  release 3DEXPERIENCE R2019x manuals                    * 
                *  plus the notes accompanying this release.              * 
                *                                                         * 
                *                                                         * 
                *                                                         * 
                *                                                         * 
                *                                                         * 
                *   This program may not be used for commercial purposes  * 
                *           without payment of a commercial fee.          * 
                *                                                         * 
                * * * * * * * * * * * * * * * * * * * * * * * * * * * * * * 


 



     PROCESSING PART, INSTANCE, AND ASSEMBLY INFORMATION
   *******************************************************


     END PROCESSING PART, INSTANCE, AND ASSEMBLY INFORMATION
   ***********************************************************




     OPTIONS BEING PROCESSED
   ***************************


  *Node
  *Element, type=B31
  *Element, type=B33
  *Element, type=B31
  *Element, type=SPRING2
  *Element, type=B31
  *Element, type=SPRING2
  *Element, type=B31
  *Element, type=S4R
  *Nset, nset=ASSEMBLYSUSPENSIONBRIDGE_SUSPENSIONBRIDGE_BEARINGLOW1_NORTH
  *Nset, nset=ASSEMBLYSUSPENSIONBRIDGE_SUSPENSIONBRIDGE_BEARINGLOW1_SOUTH
  *Nset, nset=ASSEMBLYSUSPENSIONBRIDGE_SUSPENSIONBRIDGE_BEARINGTOP1_NORTH
  *Nset, nset=ASSEMBLYSUSPENSIONBRIDGE_SUSPENSIONBRIDGE_BEARINGTOP1_SOUTH
  *Nset, nset=ASSEMBLYSUSPENSIONBRIDGE_SUSPENSIONBRIDGE_BRIDGEDECK_COG
  *Nset, nset=ASSEMBLYSUSPENSIONBRIDGE_SUSPENSIONBRIDGE_BRIDGEOUTER_EAST
  *Nset, nset=ASSEMBLYSUSPENSIONBRIDGE_SUSPENSIONBRIDGE_BRIDGEOUTER_WEST
  *Nset, nset=ASSEMBLYSUSPENSIONBRIDGE_SUSPENSIONBRIDGE_CABLE_MAIN_ANCHORAGE
  *Nset, nset=ASSEMBLYSUSPENSIONBRIDGE_SUSPENSIONBRIDGE_CABLE_MAIN_EAST
  *Nset, nset=ASSEMBLYSUSPENSIONBRIDGE_SUSPENSIONBRIDGE_CABLE_MAIN_SPAN
  *Nset, nset=ASSEMBLYSUSPENSIONBRIDGE_SUSPENSIONBRIDGE_CABLE_MAIN_TOP
  *Nset, nset=ASSEMBLYSUSPENSIONBRIDGE_SUSPENSIONBRIDGE_CABLE_MAIN_TOP_NORTH_EAST
  *Nset, nset=ASSEMBLYSUSPENSIONBRIDGE_SUSPENSIONBRIDGE_CABLE_MAIN_TOP_NORTH_WEST
  *Nset, nset=ASSEMBLYSUSPENSIONBRIDGE_SUSPENSIONBRIDGE_CABLE_MAIN_TOP_SOUTH_EAST
  *Nset, nset=ASSEMBLYSUSPENSIONBRIDGE_SUSPENSIONBRIDGE_CABLE_MAIN_TOP_SOUTH_WEST
  *Nset, nset=ASSEMBLYSUSPENSIONBRIDGE_SUSPENSIONBRIDGE_CABLE_MAIN_WEST
  *Nset, nset=ASSEMBLYSUSPENSIONBRIDGE_SUSPENSIONBRIDGE_TOWER_BASE
  *Nset, nset=ASSEMBLYSUSPENSIONBRIDGE_SUSPENSIONBRIDGE_TOWER_CROSSBEAM_NORTH_1
  *Nset, nset=ASSEMBLYSUSPENSIONBRIDGE_SUSPENSIONBRIDGE_TOWER_CROSSBEAM_NORTH_1_END
  *Nset, nset=ASSEMBLYSUSPENSIONBRIDGE_SUSPENSIONBRIDGE_TOWER_CROSSBEAM_NORTH_1_START
  *Nset, nset=ASSEMBLYSUSPENSIONBRIDGE_SUSPENSIONBRIDGE_TOWER_CROSSBEAM_NORTH_2
  *Nset, nset=ASSEMBLYSUSPENSIONBRIDGE_SUSPENSIONBRIDGE_TOWER_CROSSBEAM_NORTH_2_END
  *Nset, nset=ASSEMBLYSUSPENSIONBRIDGE_SUSPENSIONBRIDGE_TOWER_CROSSBEAM_NORTH_2_START
  *Nset, nset=ASSEMBLYSUSPENSIONBRIDGE_SUSPENSIONBRIDGE_TOWER_CROSSBEAM_SOUTH_1
  *Nset, nset=ASSEMBLYSUSPENSIONBRIDGE_SUSPENSIONBRIDGE_TOWER_CROSSBEAM_SOUTH_1_END
  *Nset, nset=ASSEMBLYSUSPENSIONBRIDGE_SUSPENSIONBRIDGE_TOWER_CROSSBEAM_SOUTH_1_START
  *Nset, nset=ASSEMBLYSUSPENSIONBRIDGE_SUSPENSIONBRIDGE_TOWER_CROSSBEAM_SOUTH_2
  *Nset, nset=ASSEMBLYSUSPENSIONBRIDGE_SUSPENSIONBRIDGE_TOWER_CROSSBEAM_SOUTH_2_END
  *Nset, nset=ASSEMBLYSUSPENSIONBRIDGE_SUSPENSIONBRIDGE_TOWER_CROSSBEAM_SOUTH_2_START
  *Nset, nset=ASSEMBLYSUSPENSIONBRIDGE_SUSPENSIONBRIDGE_TOWER_LEG
  *Nset, nset=ASSEMBLYSUSPENSIONBRIDGE_SUSPENSIONBRIDGE_TOWER_LEG_NORTH_CROSSBEAM_1_END
  *Nset, nset=ASSEMBLYSUSPENSIONBRIDGE_SUSPENSIONBRIDGE_TOWER_LEG_NORTH_CROSSBEAM_1_START
  *Nset, nset=ASSEMBLYSUSPENSIONBRIDGE_SUSPENSIONBRIDGE_TOWER_LEG_NORTH_CROSSBEAM_2_END
  *Nset, nset=ASSEMBLYSUSPENSIONBRIDGE_SUSPENSIONBRIDGE_TOWER_LEG_NORTH_CROSSBEAM_2_START
  *Nset, nset=ASSEMBLYSUSPENSIONBRIDGE_SUSPENSIONBRIDGE_TOWER_LEG_NORTH_EAST
  *Nset, nset=ASSEMBLYSUSPENSIONBRIDGE_SUSPENSIONBRIDGE_TOWER_LEG_NORTH_WEST
  *Nset, nset=ASSEMBLYSUSPENSIONBRIDGE_SUSPENSIONBRIDGE_TOWER_LEG_SOUTH_CROSSBEAM_1_END
  *Nset, nset=ASSEMBLYSUSPENSIONBRIDGE_SUSPENSIONBRIDGE_TOWER_LEG_SOUTH_CROSSBEAM_1_START
  *Nset, nset=ASSEMBLYSUSPENSIONBRIDGE_SUSPENSIONBRIDGE_TOWER_LEG_SOUTH_CROSSBEAM_2_END
  *Nset, nset=ASSEMBLYSUSPENSIONBRIDGE_SUSPENSIONBRIDGE_TOWER_LEG_SOUTH_CROSSBEAM_2_START
  *Nset, nset=ASSEMBLYSUSPENSIONBRIDGE_SUSPENSIONBRIDGE_TOWER_LEG_SOUTH_EAST
  *Nset, nset=ASSEMBLYSUSPENSIONBRIDGE_SUSPENSIONBRIDGE_TOWER_LEG_SOUTH_WEST
  *Nset, nset=ASSEMBLYSUSPENSIONBRIDGE_SUSPENSIONBRIDGE_TOWER_TOP_NORTH_EAST
  *Nset, nset=ASSEMBLYSUSPENSIONBRIDGE_SUSPENSIONBRIDGE_TOWER_TOP_NORTH_WEST
  *Nset, nset=ASSEMBLYSUSPENSIONBRIDGE_SUSPENSIONBRIDGE_TOWER_TOP_SOUTH_EAST
  *Nset, nset=ASSEMBLYSUSPENSIONBRIDGE_SUSPENSIONBRIDGE_TOWER_TOP_SOUTH_WEST
  *Elset, elset=ASSEMBLYSUSPENSIONBRIDGE_SUSPENSIONBRIDGE_BEARING
  *Elset, elset=ASSEMBLYSUSPENSIONBRIDGE_SUSPENSIONBRIDGE_BEARINGLOW
  *Elset, elset=ASSEMBLYSUSPENSIONBRIDGE_SUSPENSIONBRIDGE_BEARINGLOW1_NORTH
  *Elset, elset=ASSEMBLYSUSPENSIONBRIDGE_SUSPENSIONBRIDGE_BEARINGLOW1_SOUTH
  *Elset, elset=ASSEMBLYSUSPENSIONBRIDGE_SUSPENSIONBRIDGE_BEARINGPENDULUM
  *Elset, elset=ASSEMBLYSUSPENSIONBRIDGE_SUSPENSIONBRIDGE_BEARINGPENDULUM1_NORTH
  *Elset, elset=ASSEMBLYSUSPENSIONBRIDGE_SUSPENSIONBRIDGE_BEARINGPENDULUM1_SOUTH
  *Elset, elset=ASSEMBLYSUSPENSIONBRIDGE_SUSPENSIONBRIDGE_BEARINGSPRING
  *Elset, elset=ASSEMBLYSUSPENSIONBRIDGE_SUSPENSIONBRIDGE_BEARINGSPRING1_NORTH
  *Elset, elset=ASSEMBLYSUSPENSIONBRIDGE_SUSPENSIONBRIDGE_BEARINGSPRING1_NORTH_RX
  *Elset, elset=ASSEMBLYSUSPENSIONBRIDGE_SUSPENSIONBRIDGE_BEARINGSPRING1_NORTH_RY
  *Elset, elset=ASSEMBLYSUSPENSIONBRIDGE_SUSPENSIONBRIDGE_BEARINGSPRING1_NORTH_RZ
  *Elset, elset=ASSEMBLYSUSPENSIONBRIDGE_SUSPENSIONBRIDGE_BEARINGSPRING1_NORTH_X
  *Elset, elset=ASSEMBLYSUSPENSIONBRIDGE_SUSPENSIONBRIDGE_BEARINGSPRING1_NORTH_Y
  *Elset, elset=ASSEMBLYSUSPENSIONBRIDGE_SUSPENSIONBRIDGE_BEARINGSPRING1_NORTH_Z
  *Elset, elset=ASSEMBLYSUSPENSIONBRIDGE_SUSPENSIONBRIDGE_BEARINGSPRING1_SOUTH
  *Elset, elset=ASSEMBLYSUSPENSIONBRIDGE_SUSPENSIONBRIDGE_BEARINGSPRING1_SOUTH_RX
  *Elset, elset=ASSEMBLYSUSPENSIONBRIDGE_SUSPENSIONBRIDGE_BEARINGSPRING1_SOUTH_RY
  *Elset, elset=ASSEMBLYSUSPENSIONBRIDGE_SUSPENSIONBRIDGE_BEARINGSPRING1_SOUTH_RZ
  *Elset, elset=ASSEMBLYSUSPENSIONBRIDGE_SUSPENSIONBRIDGE_BEARINGSPRING1_SOUTH_X
  *Elset, elset=ASSEMBLYSUSPENSIONBRIDGE_SUSPENSIONBRIDGE_BEARINGSPRING1_SOUTH_Y
  *Elset, elset=ASSEMBLYSUSPENSIONBRIDGE_SUSPENSIONBRIDGE_BEARINGSPRING1_SOUTH_Z
  *Elset, elset=ASSEMBLYSUSPENSIONBRIDGE_SUSPENSIONBRIDGE_BEARINGTOP
  *Elset, elset=ASSEMBLYSUSPENSIONBRIDGE_SUSPENSIONBRIDGE_BEARINGTOP1_NORTH
  *Elset, elset=ASSEMBLYSUSPENSIONBRIDGE_SUSPENSIONBRIDGE_BEARINGTOP1_SOUTH
  *Elset, elset=ASSEMBLYSUSPENSIONBRIDGE_SUSPENSIONBRIDGE_BRIDGEDECK
  *Elset, elset=ASSEMBLYSUSPENSIONBRIDGE_SUSPENSIONBRIDGE_BRIDGEDECK_COG
  *Elset, elset=ASSEMBLYSUSPENSIONBRIDGE_SUSPENSIONBRIDGE_BRIDGEDECK_SHELL
  *Elset, elset=ASSEMBLYSUSPENSIONBRIDGE_SUSPENSIONBRIDGE_BRIDGEDECK_SHELL_EAST
  *Elset, elset=ASSEMBLYSUSPENSIONBRIDGE_SUSPENSIONBRIDGE_BRIDGEDECK_SHELL_WEST
  *Elset, elset=ASSEMBLYSUSPENSIONBRIDGE_SUSPENSIONBRIDGE_CABLE_MAIN
  *Elset, elset=ASSEMBLYSUSPENSIONBRIDGE_SUSPENSIONBRIDGE_CABLE_MAIN_EAST
  *Elset, elset=ASSEMBLYSUSPENSIONBRIDGE_SUSPENSIONBRIDGE_CABLE_MAIN_SPAN
  *Elset, elset=ASSEMBLYSUSPENSIONBRIDGE_SUSPENSIONBRIDGE_CABLE_MAIN_WEST
  *Elset, elset=ASSEMBLYSUSPENSIONBRIDGE_SUSPENSIONBRIDGE_CABLE_TEMPSUPPORT
  *Elset, elset=ASSEMBLYSUSPENSIONBRIDGE_SUSPENSIONBRIDGE_HANGER
  *Elset, elset=ASSEMBLYSUSPENSIONBRIDGE_SUSPENSIONBRIDGE_HANGER_EAST
  *Elset, elset=ASSEMBLYSUSPENSIONBRIDGE_SUSPENSIONBRIDGE_HANGER_WEST
  *Elset, elset=ASSEMBLYSUSPENSIONBRIDGE_SUSPENSIONBRIDGE_LATCONNOUTER
  *Elset, elset=ASSEMBLYSUSPENSIONBRIDGE_SUSPENSIONBRIDGE_LATCONNOUTEREAST
  *Elset, elset=ASSEMBLYSUSPENSIONBRIDGE_SUSPENSIONBRIDGE_LATCONNOUTERWEST
  *Elset, elset=ASSEMBLYSUSPENSIONBRIDGE_SUSPENSIONBRIDGE_SADLESPRING
  *Elset, elset=ASSEMBLYSUSPENSIONBRIDGE_SUSPENSIONBRIDGE_SADLESPRING_X
  *Elset, elset=ASSEMBLYSUSPENSIONBRIDGE_SUSPENSIONBRIDGE_SADLESPRING_Y
  *Elset, elset=ASSEMBLYSUSPENSIONBRIDGE_SUSPENSIONBRIDGE_SADLESPRING_Z
  *Elset, elset=ASSEMBLYSUSPENSIONBRIDGE_SUSPENSIONBRIDGE_TOWER
  *Elset, elset=ASSEMBLYSUSPENSIONBRIDGE_SUSPENSIONBRIDGE_TOWER_CROSSBEAM
  *Elset, elset=ASSEMBLYSUSPENSIONBRIDGE_SUSPENSIONBRIDGE_TOWER_CROSSBEAM_NORTH_1
  *Elset, elset=ASSEMBLYSUSPENSIONBRIDGE_SUSPENSIONBRIDGE_TOWER_CROSSBEAM_NORTH_2
  *Elset, elset=ASSEMBLYSUSPENSIONBRIDGE_SUSPENSIONBRIDGE_TOWER_CROSSBEAM_SOUTH_1
  *Elset, elset=ASSEMBLYSUSPENSIONBRIDGE_SUSPENSIONBRIDGE_TOWER_CROSSBEAM_SOUTH_2
  *Elset, elset=ASSEMBLYSUSPENSIONBRIDGE_SUSPENSIONBRIDGE_TOWER_LEG
  *Elset, elset=ASSEMBLYSUSPENSIONBRIDGE_SUSPENSIONBRIDGE_TOWER_LEG_NORTH_EAST
  *Elset, elset=ASSEMBLYSUSPENSIONBRIDGE_SUSPENSIONBRIDGE_TOWER_LEG_NORTH_WEST
  *Elset, elset=ASSEMBLYSUSPENSIONBRIDGE_SUSPENSIONBRIDGE_TOWER_LEG_SOUTH_EAST
  *Elset, elset=ASSEMBLYSUSPENSIONBRIDGE_SUSPENSIONBRIDGE_TOWER_LEG_SOUTH_WEST
  *Elset, elset=ASSEMBLYSUSPENSIONBRIDGE_SUSPENSIONBRIDGE_TOWER_NORTH_CS_001
  *Elset, elset=ASSEMBLYSUSPENSIONBRIDGE_SUSPENSIONBRIDGE_TOWER_NORTH_CS_002
  *Elset, elset=ASSEMBLYSUSPENSIONBRIDGE_SUSPENSIONBRIDGE_TOWER_NORTH_CS_003
  *Elset, elset=ASSEMBLYSUSPENSIONBRIDGE_SUSPENSIONBRIDGE_TOWER_NORTH_CS_004
  *Elset, elset=ASSEMBLYSUSPENSIONBRIDGE_SUSPENSIONBRIDGE_TOWER_NORTH_CS_005
  *Elset, elset=ASSEMBLYSUSPENSIONBRIDGE_SUSPENSIONBRIDGE_TOWER_NORTH_CS_006
  *Elset, elset=ASSEMBLYSUSPENSIONBRIDGE_SUSPENSIONBRIDGE_TOWER_NORTH_CS_007
  *Elset, elset=ASSEMBLYSUSPENSIONBRIDGE_SUSPENSIONBRIDGE_TOWER_NORTH_CS_008
  *Elset, elset=ASSEMBLYSUSPENSIONBRIDGE_SUSPENSIONBRIDGE_TOWER_NORTH_CS_009
  *Elset, elset=ASSEMBLYSUSPENSIONBRIDGE_SUSPENSIONBRIDGE_TOWER_NORTH_CS_010
  *Elset, elset=ASSEMBLYSUSPENSIONBRIDGE_SUSPENSIONBRIDGE_TOWER_NORTH_CS_011
  *Elset, elset=ASSEMBLYSUSPENSIONBRIDGE_SUSPENSIONBRIDGE_TOWER_NORTH_CS_012
  *Elset, elset=ASSEMBLYSUSPENSIONBRIDGE_SUSPENSIONBRIDGE_TOWER_NORTH_CS_013
  *Elset, elset=ASSEMBLYSUSPENSIONBRIDGE_SUSPENSIONBRIDGE_TOWER_NORTH_CS_014
  *Elset, elset=ASSEMBLYSUSPENSIONBRIDGE_SUSPENSIONBRIDGE_TOWER_NORTH_CS_015
  *Elset, elset=ASSEMBLYSUSPENSIONBRIDGE_SUSPENSIONBRIDGE_TOWER_NORTH_CS_016
  *Elset, elset=ASSEMBLYSUSPENSIONBRIDGE_SUSPENSIONBRIDGE_TOWER_NORTH_CS_017
  *Elset, elset=ASSEMBLYSUSPENSIONBRIDGE_SUSPENSIONBRIDGE_TOWER_NORTH_CS_018
  *Elset, elset=ASSEMBLYSUSPENSIONBRIDGE_SUSPENSIONBRIDGE_TOWER_NORTH_CS_019
  *Elset, elset=ASSEMBLYSUSPENSIONBRIDGE_SUSPENSIONBRIDGE_TOWER_NORTH_CS_020
  *Elset, elset=ASSEMBLYSUSPENSIONBRIDGE_SUSPENSIONBRIDGE_TOWER_NORTH_CS_021
  *Elset, elset=ASSEMBLYSUSPENSIONBRIDGE_SUSPENSIONBRIDGE_TOWER_NORTH_CS_022
  *Elset, elset=ASSEMBLYSUSPENSIONBRIDGE_SUSPENSIONBRIDGE_TOWER_NORTH_CS_023
  *Elset, elset=ASSEMBLYSUSPENSIONBRIDGE_SUSPENSIONBRIDGE_TOWER_NORTH_CS_024
  *Elset, elset=ASSEMBLYSUSPENSIONBRIDGE_SUSPENSIONBRIDGE_TOWER_NORTH_CS_025
  *Elset, elset=ASSEMBLYSUSPENSIONBRIDGE_SUSPENSIONBRIDGE_TOWER_NORTH_CS_026
  *Elset, elset=ASSEMBLYSUSPENSIONBRIDGE_SUSPENSIONBRIDGE_TOWER_NORTH_CS_027
  *Elset, elset=ASSEMBLYSUSPENSIONBRIDGE_SUSPENSIONBRIDGE_TOWER_NORTH_CS_028
  *Elset, elset=ASSEMBLYSUSPENSIONBRIDGE_SUSPENSIONBRIDGE_TOWER_NORTH_CS_029
  *Elset, elset=ASSEMBLYSUSPENSIONBRIDGE_SUSPENSIONBRIDGE_TOWER_NORTH_CS_030
  *Elset, elset=ASSEMBLYSUSPENSIONBRIDGE_SUSPENSIONBRIDGE_TOWER_NORTH_CS_031
  *Elset, elset=ASSEMBLYSUSPENSIONBRIDGE_SUSPENSIONBRIDGE_TOWER_NORTH_CS_032
  *Elset, elset=ASSEMBLYSUSPENSIONBRIDGE_SUSPENSIONBRIDGE_TOWER_NORTH_CS_033
  *Elset, elset=ASSEMBLYSUSPENSIONBRIDGE_SUSPENSIONBRIDGE_TOWER_NORTH_CS_034
  *Elset, elset=ASSEMBLYSUSPENSIONBRIDGE_SUSPENSIONBRIDGE_TOWER_NORTH_CS_035
  *Elset, elset=ASSEMBLYSUSPENSIONBRIDGE_SUSPENSIONBRIDGE_TOWER_NORTH_CS_036
  *Elset, elset=ASSEMBLYSUSPENSIONBRIDGE_SUSPENSIONBRIDGE_TOWER_NORTH_CS_037
  *Elset, elset=ASSEMBLYSUSPENSIONBRIDGE_SUSPENSIONBRIDGE_TOWER_NORTH_CS_038
  *Elset, elset=ASSEMBLYSUSPENSIONBRIDGE_SUSPENSIONBRIDGE_TOWER_NORTH_CS_039
  *Elset, elset=ASSEMBLYSUSPENSIONBRIDGE_SUSPENSIONBRIDGE_TOWER_NORTH_CS_040
  *Elset, elset=ASSEMBLYSUSPENSIONBRIDGE_SUSPENSIONBRIDGE_TOWER_NORTH_CS_041
  *Elset, elset=ASSEMBLYSUSPENSIONBRIDGE_SUSPENSIONBRIDGE_TOWER_NORTH_CS_042
  *Elset, elset=ASSEMBLYSUSPENSIONBRIDGE_SUSPENSIONBRIDGE_TOWER_SOUTH_CS_001
  *Elset, elset=ASSEMBLYSUSPENSIONBRIDGE_SUSPENSIONBRIDGE_TOWER_SOUTH_CS_002
  *Elset, elset=ASSEMBLYSUSPENSIONBRIDGE_SUSPENSIONBRIDGE_TOWER_SOUTH_CS_003
  *Elset, elset=ASSEMBLYSUSPENSIONBRIDGE_SUSPENSIONBRIDGE_TOWER_SOUTH_CS_004
  *Elset, elset=ASSEMBLYSUSPENSIONBRIDGE_SUSPENSIONBRIDGE_TOWER_SOUTH_CS_005
  *Elset, elset=ASSEMBLYSUSPENSIONBRIDGE_SUSPENSIONBRIDGE_TOWER_SOUTH_CS_006
  *Elset, elset=ASSEMBLYSUSPENSIONBRIDGE_SUSPENSIONBRIDGE_TOWER_SOUTH_CS_007
  *Elset, elset=ASSEMBLYSUSPENSIONBRIDGE_SUSPENSIONBRIDGE_TOWER_SOUTH_CS_008
  *Elset, elset=ASSEMBLYSUSPENSIONBRIDGE_SUSPENSIONBRIDGE_TOWER_SOUTH_CS_009
  *Elset, elset=ASSEMBLYSUSPENSIONBRIDGE_SUSPENSIONBRIDGE_TOWER_SOUTH_CS_010
  *Elset, elset=ASSEMBLYSUSPENSIONBRIDGE_SUSPENSIONBRIDGE_TOWER_SOUTH_CS_011
  *Elset, elset=ASSEMBLYSUSPENSIONBRIDGE_SUSPENSIONBRIDGE_TOWER_SOUTH_CS_012
  *Elset, elset=ASSEMBLYSUSPENSIONBRIDGE_SUSPENSIONBRIDGE_TOWER_SOUTH_CS_013
  *Elset, elset=ASSEMBLYSUSPENSIONBRIDGE_SUSPENSIONBRIDGE_TOWER_SOUTH_CS_014
  *Elset, elset=ASSEMBLYSUSPENSIONBRIDGE_SUSPENSIONBRIDGE_TOWER_SOUTH_CS_015
  *Elset, elset=ASSEMBLYSUSPENSIONBRIDGE_SUSPENSIONBRIDGE_TOWER_SOUTH_CS_016
  *Elset, elset=ASSEMBLYSUSPENSIONBRIDGE_SUSPENSIONBRIDGE_TOWER_SOUTH_CS_017
  *Elset, elset=ASSEMBLYSUSPENSIONBRIDGE_SUSPENSIONBRIDGE_TOWER_SOUTH_CS_018
  *Elset, elset=ASSEMBLYSUSPENSIONBRIDGE_SUSPENSIONBRIDGE_TOWER_SOUTH_CS_019
  *Elset, elset=ASSEMBLYSUSPENSIONBRIDGE_SUSPENSIONBRIDGE_TOWER_SOUTH_CS_020
  *Elset, elset=ASSEMBLYSUSPENSIONBRIDGE_SUSPENSIONBRIDGE_TOWER_SOUTH_CS_021
  *Elset, elset=ASSEMBLYSUSPENSIONBRIDGE_SUSPENSIONBRIDGE_TOWER_SOUTH_CS_022
  *Elset, elset=ASSEMBLYSUSPENSIONBRIDGE_SUSPENSIONBRIDGE_TOWER_SOUTH_CS_023
  *Elset, elset=ASSEMBLYSUSPENSIONBRIDGE_SUSPENSIONBRIDGE_TOWER_SOUTH_CS_024
  *Elset, elset=ASSEMBLYSUSPENSIONBRIDGE_SUSPENSIONBRIDGE_TOWER_SOUTH_CS_025
  *Elset, elset=ASSEMBLYSUSPENSIONBRIDGE_SUSPENSIONBRIDGE_TOWER_SOUTH_CS_026
  *Elset, elset=ASSEMBLYSUSPENSIONBRIDGE_SUSPENSIONBRIDGE_TOWER_SOUTH_CS_027
  *Elset, elset=ASSEMBLYSUSPENSIONBRIDGE_SUSPENSIONBRIDGE_TOWER_SOUTH_CS_028
  *Elset, elset=ASSEMBLYSUSPENSIONBRIDGE_SUSPENSIONBRIDGE_TOWER_SOUTH_CS_029
  *Elset, elset=ASSEMBLYSUSPENSIONBRIDGE_SUSPENSIONBRIDGE_TOWER_SOUTH_CS_030
  *Elset, elset=ASSEMBLYSUSPENSIONBRIDGE_SUSPENSIONBRIDGE_TOWER_SOUTH_CS_031
  *Elset, elset=ASSEMBLYSUSPENSIONBRIDGE_SUSPENSIONBRIDGE_TOWER_SOUTH_CS_032
  *Elset, elset=ASSEMBLYSUSPENSIONBRIDGE_SUSPENSIONBRIDGE_TOWER_SOUTH_CS_033
  *Elset, elset=ASSEMBLYSUSPENSIONBRIDGE_SUSPENSIONBRIDGE_TOWER_SOUTH_CS_034
  *Elset, elset=ASSEMBLYSUSPENSIONBRIDGE_SUSPENSIONBRIDGE_TOWER_SOUTH_CS_035
  *Elset, elset=ASSEMBLYSUSPENSIONBRIDGE_SUSPENSIONBRIDGE_TOWER_SOUTH_CS_036
  *Elset, elset=ASSEMBLYSUSPENSIONBRIDGE_SUSPENSIONBRIDGE_TOWER_SOUTH_CS_037
  *Elset, elset=ASSEMBLYSUSPENSIONBRIDGE_SUSPENSIONBRIDGE_TOWER_SOUTH_CS_038
  *Elset, elset=ASSEMBLYSUSPENSIONBRIDGE_SUSPENSIONBRIDGE_TOWER_SOUTH_CS_039
  *Elset, elset=ASSEMBLYSUSPENSIONBRIDGE_SUSPENSIONBRIDGE_TOWER_SOUTH_CS_040
  *Elset, elset=ASSEMBLYSUSPENSIONBRIDGE_SUSPENSIONBRIDGE_TOWER_SOUTH_CS_041
  *Elset, elset=ASSEMBLYSUSPENSIONBRIDGE_SUSPENSIONBRIDGE_TOWER_SOUTH_CS_042
  *material, name=CONCRETE
  *elastic
  *density
  *material, name=SOFT
  *elastic
  *density
  *material, name=STEEL
  *elastic
  *density
  *beamgeneralsection, elset=ASSEMBLYSUSPENSIONBRIDGE_SUSPENSIONBRIDGE_CABLE_MAIN, density=7850, section=GENERAL
  *beamgeneralsection, elset=ASSEMBLYSUSPENSIONBRIDGE_SUSPENSIONBRIDGE_CABLE_TEMPSUPPORT, density=0, section=GENERAL
  *beamgeneralsection, elset=ASSEMBLYSUSPENSIONBRIDGE_SUSPENSIONBRIDGE_LATCONNOUTER, density=0, section=GENERAL
  *beamgeneralsection, elset=ASSEMBLYSUSPENSIONBRIDGE_SUSPENSIONBRIDGE_BRIDGEDECK_COG, density=0, section=GENERAL
  *beamgeneralsection, elset=ASSEMBLYSUSPENSIONBRIDGE_SUSPENSIONBRIDGE_HANGER, density=7850, section=GENERAL
  *beamgeneralsection, elset=ASSEMBLYSUSPENSIONBRIDGE_SUSPENSIONBRIDGE_BEARINGTOP, density=0, section=GENERAL
  *beamgeneralsection, elset=ASSEMBLYSUSPENSIONBRIDGE_SUSPENSIONBRIDGE_BEARINGLOW, density=0, section=GENERAL
  *spring, elset=ASSEMBLYSUSPENSIONBRIDGE_SUSPENSIONBRIDGE_SADLESPRING_X
  *spring, elset=ASSEMBLYSUSPENSIONBRIDGE_SUSPENSIONBRIDGE_SADLESPRING_Y
  *spring, elset=ASSEMBLYSUSPENSIONBRIDGE_SUSPENSIONBRIDGE_SADLESPRING_Z
  *spring, elset=ASSEMBLYSUSPENSIONBRIDGE_SUSPENSIONBRIDGE_BEARINGSPRING1_SOUTH_X
  *spring, elset=ASSEMBLYSUSPENSIONBRIDGE_SUSPENSIONBRIDGE_BEARINGSPRING1_SOUTH_Y
  *spring, elset=ASSEMBLYSUSPENSIONBRIDGE_SUSPENSIONBRIDGE_BEARINGSPRING1_SOUTH_Z
  *spring, elset=ASSEMBLYSUSPENSIONBRIDGE_SUSPENSIONBRIDGE_BEARINGSPRING1_SOUTH_RX
  *spring, elset=ASSEMBLYSUSPENSIONBRIDGE_SUSPENSIONBRIDGE_BEARINGSPRING1_SOUTH_RY
  *spring, elset=ASSEMBLYSUSPENSIONBRIDGE_SUSPENSIONBRIDGE_BEARINGSPRING1_SOUTH_RZ
  *spring, elset=ASSEMBLYSUSPENSIONBRIDGE_SUSPENSIONBRIDGE_BEARINGSPRING1_NORTH_X
  *spring, elset=ASSEMBLYSUSPENSIONBRIDGE_SUSPENSIONBRIDGE_BEARINGSPRING1_NORTH_Y
  *spring, elset=ASSEMBLYSUSPENSIONBRIDGE_SUSPENSIONBRIDGE_BEARINGSPRING1_NORTH_Z
  *spring, elset=ASSEMBLYSUSPENSIONBRIDGE_SUSPENSIONBRIDGE_BEARINGSPRING1_NORTH_RX
  *spring, elset=ASSEMBLYSUSPENSIONBRIDGE_SUSPENSIONBRIDGE_BEARINGSPRING1_NORTH_RY
  *spring, elset=ASSEMBLYSUSPENSIONBRIDGE_SUSPENSIONBRIDGE_BEARINGSPRING1_NORTH_RZ
  *shellsection, elset=ASSEMBLYSUSPENSIONBRIDGE_SUSPENSIONBRIDGE_BRIDGEDECK_SHELL, material=SOFT, offset=SNEG
  *beamsection, elset=ASSEMBLYSUSPENSIONBRIDGE_SUSPENSIONBRIDGE_TOWER_SOUTH_CS_001, material=CONCRETE, section=BOX

 ***WARNING: ONE OR MORE THICKNESS OF THE BOX SECTION IS GREATER THAN 0.1 OF 
             THE CROSS SECTION DIMENSION. THE TORSIONAL RIGIDITY MAY NOT BE 
             EVALUATED ACCURATELY SINCE THE CALCULATION IS BASED ON THE 
             ASSUMPTION THAT THE WALL THICKNESS IS MUCH SMALL IN COMPARISON TO 
             THE CROSS SECTION DIMENSION
  *beamsection, elset=ASSEMBLYSUSPENSIONBRIDGE_SUSPENSIONBRIDGE_TOWER_NORTH_CS_001, material=CONCRETE, section=BOX

 ***WARNING: ONE OR MORE THICKNESS OF THE BOX SECTION IS GREATER THAN 0.1 OF 
             THE CROSS SECTION DIMENSION. THE TORSIONAL RIGIDITY MAY NOT BE 
             EVALUATED ACCURATELY SINCE THE CALCULATION IS BASED ON THE 
             ASSUMPTION THAT THE WALL THICKNESS IS MUCH SMALL IN COMPARISON TO 
             THE CROSS SECTION DIMENSION
  *beamsection, elset=ASSEMBLYSUSPENSIONBRIDGE_SUSPENSIONBRIDGE_TOWER_SOUTH_CS_002, material=CONCRETE, section=BOX

 ***WARNING: ONE OR MORE THICKNESS OF THE BOX SECTION IS GREATER THAN 0.1 OF 
             THE CROSS SECTION DIMENSION. THE TORSIONAL RIGIDITY MAY NOT BE 
             EVALUATED ACCURATELY SINCE THE CALCULATION IS BASED ON THE 
             ASSUMPTION THAT THE WALL THICKNESS IS MUCH SMALL IN COMPARISON TO 
             THE CROSS SECTION DIMENSION
  *beamsection, elset=ASSEMBLYSUSPENSIONBRIDGE_SUSPENSIONBRIDGE_TOWER_NORTH_CS_002, material=CONCRETE, section=BOX

 ***WARNING: ONE OR MORE THICKNESS OF THE BOX SECTION IS GREATER THAN 0.1 OF 
             THE CROSS SECTION DIMENSION. THE TORSIONAL RIGIDITY MAY NOT BE 
             EVALUATED ACCURATELY SINCE THE CALCULATION IS BASED ON THE 
             ASSUMPTION THAT THE WALL THICKNESS IS MUCH SMALL IN COMPARISON TO 
             THE CROSS SECTION DIMENSION
  *beamsection, elset=ASSEMBLYSUSPENSIONBRIDGE_SUSPENSIONBRIDGE_TOWER_SOUTH_CS_003, material=CONCRETE, section=BOX

 ***WARNING: ONE OR MORE THICKNESS OF THE BOX SECTION IS GREATER THAN 0.1 OF 
             THE CROSS SECTION DIMENSION. THE TORSIONAL RIGIDITY MAY NOT BE 
             EVALUATED ACCURATELY SINCE THE CALCULATION IS BASED ON THE 
             ASSUMPTION THAT THE WALL THICKNESS IS MUCH SMALL IN COMPARISON TO 
             THE CROSS SECTION DIMENSION
  *beamsection, elset=ASSEMBLYSUSPENSIONBRIDGE_SUSPENSIONBRIDGE_TOWER_NORTH_CS_003, material=CONCRETE, section=BOX

 ***WARNING: ONE OR MORE THICKNESS OF THE BOX SECTION IS GREATER THAN 0.1 OF 
             THE CROSS SECTION DIMENSION. THE TORSIONAL RIGIDITY MAY NOT BE 
             EVALUATED ACCURATELY SINCE THE CALCULATION IS BASED ON THE 
             ASSUMPTION THAT THE WALL THICKNESS IS MUCH SMALL IN COMPARISON TO 
             THE CROSS SECTION DIMENSION
  *beamsection, elset=ASSEMBLYSUSPENSIONBRIDGE_SUSPENSIONBRIDGE_TOWER_SOUTH_CS_004, material=CONCRETE, section=BOX

 ***WARNING: ONE OR MORE THICKNESS OF THE BOX SECTION IS GREATER THAN 0.1 OF 
             THE CROSS SECTION DIMENSION. THE TORSIONAL RIGIDITY MAY NOT BE 
             EVALUATED ACCURATELY SINCE THE CALCULATION IS BASED ON THE 
             ASSUMPTION THAT THE WALL THICKNESS IS MUCH SMALL IN COMPARISON TO 
             THE CROSS SECTION DIMENSION
  *beamsection, elset=ASSEMBLYSUSPENSIONBRIDGE_SUSPENSIONBRIDGE_TOWER_NORTH_CS_004, material=CONCRETE, section=BOX

 ***WARNING: ONE OR MORE THICKNESS OF THE BOX SECTION IS GREATER THAN 0.1 OF 
             THE CROSS SECTION DIMENSION. THE TORSIONAL RIGIDITY MAY NOT BE 
             EVALUATED ACCURATELY SINCE THE CALCULATION IS BASED ON THE 
             ASSUMPTION THAT THE WALL THICKNESS IS MUCH SMALL IN COMPARISON TO 
             THE CROSS SECTION DIMENSION
  *beamsection, elset=ASSEMBLYSUSPENSIONBRIDGE_SUSPENSIONBRIDGE_TOWER_SOUTH_CS_005, material=CONCRETE, section=BOX

 ***WARNING: ONE OR MORE THICKNESS OF THE BOX SECTION IS GREATER THAN 0.1 OF 
             THE CROSS SECTION DIMENSION. THE TORSIONAL RIGIDITY MAY NOT BE 
             EVALUATED ACCURATELY SINCE THE CALCULATION IS BASED ON THE 
             ASSUMPTION THAT THE WALL THICKNESS IS MUCH SMALL IN COMPARISON TO 
             THE CROSS SECTION DIMENSION
  *beamsection, elset=ASSEMBLYSUSPENSIONBRIDGE_SUSPENSIONBRIDGE_TOWER_NORTH_CS_005, material=CONCRETE, section=BOX

 ***WARNING: ONE OR MORE THICKNESS OF THE BOX SECTION IS GREATER THAN 0.1 OF 
             THE CROSS SECTION DIMENSION. THE TORSIONAL RIGIDITY MAY NOT BE 
             EVALUATED ACCURATELY SINCE THE CALCULATION IS BASED ON THE 
             ASSUMPTION THAT THE WALL THICKNESS IS MUCH SMALL IN COMPARISON TO 
             THE CROSS SECTION DIMENSION
  *beamsection, elset=ASSEMBLYSUSPENSIONBRIDGE_SUSPENSIONBRIDGE_TOWER_SOUTH_CS_006, material=CONCRETE, section=BOX

 ***WARNING: ONE OR MORE THICKNESS OF THE BOX SECTION IS GREATER THAN 0.1 OF 
             THE CROSS SECTION DIMENSION. THE TORSIONAL RIGIDITY MAY NOT BE 
             EVALUATED ACCURATELY SINCE THE CALCULATION IS BASED ON THE 
             ASSUMPTION THAT THE WALL THICKNESS IS MUCH SMALL IN COMPARISON TO 
             THE CROSS SECTION DIMENSION
  *beamsection, elset=ASSEMBLYSUSPENSIONBRIDGE_SUSPENSIONBRIDGE_TOWER_NORTH_CS_006, material=CONCRETE, section=BOX

 ***WARNING: ONE OR MORE THICKNESS OF THE BOX SECTION IS GREATER THAN 0.1 OF 
             THE CROSS SECTION DIMENSION. THE TORSIONAL RIGIDITY MAY NOT BE 
             EVALUATED ACCURATELY SINCE THE CALCULATION IS BASED ON THE 
             ASSUMPTION THAT THE WALL THICKNESS IS MUCH SMALL IN COMPARISON TO 
             THE CROSS SECTION DIMENSION
  *beamsection, elset=ASSEMBLYSUSPENSIONBRIDGE_SUSPENSIONBRIDGE_TOWER_SOUTH_CS_007, material=CONCRETE, section=BOX

 ***WARNING: ONE OR MORE THICKNESS OF THE BOX SECTION IS GREATER THAN 0.1 OF 
             THE CROSS SECTION DIMENSION. THE TORSIONAL RIGIDITY MAY NOT BE 
             EVALUATED ACCURATELY SINCE THE CALCULATION IS BASED ON THE 
             ASSUMPTION THAT THE WALL THICKNESS IS MUCH SMALL IN COMPARISON TO 
             THE CROSS SECTION DIMENSION
  *beamsection, elset=ASSEMBLYSUSPENSIONBRIDGE_SUSPENSIONBRIDGE_TOWER_NORTH_CS_007, material=CONCRETE, section=BOX

 ***WARNING: ONE OR MORE THICKNESS OF THE BOX SECTION IS GREATER THAN 0.1 OF 
             THE CROSS SECTION DIMENSION. THE TORSIONAL RIGIDITY MAY NOT BE 
             EVALUATED ACCURATELY SINCE THE CALCULATION IS BASED ON THE 
             ASSUMPTION THAT THE WALL THICKNESS IS MUCH SMALL IN COMPARISON TO 
             THE CROSS SECTION DIMENSION
  *beamsection, elset=ASSEMBLYSUSPENSIONBRIDGE_SUSPENSIONBRIDGE_TOWER_SOUTH_CS_008, material=CONCRETE, section=BOX

 ***WARNING: ONE OR MORE THICKNESS OF THE BOX SECTION IS GREATER THAN 0.1 OF 
             THE CROSS SECTION DIMENSION. THE TORSIONAL RIGIDITY MAY NOT BE 
             EVALUATED ACCURATELY SINCE THE CALCULATION IS BASED ON THE 
             ASSUMPTION THAT THE WALL THICKNESS IS MUCH SMALL IN COMPARISON TO 
             THE CROSS SECTION DIMENSION
  *beamsection, elset=ASSEMBLYSUSPENSIONBRIDGE_SUSPENSIONBRIDGE_TOWER_NORTH_CS_008, material=CONCRETE, section=BOX

 ***WARNING: ONE OR MORE THICKNESS OF THE BOX SECTION IS GREATER THAN 0.1 OF 
             THE CROSS SECTION DIMENSION. THE TORSIONAL RIGIDITY MAY NOT BE 
             EVALUATED ACCURATELY SINCE THE CALCULATION IS BASED ON THE 
             ASSUMPTION THAT THE WALL THICKNESS IS MUCH SMALL IN COMPARISON TO 
             THE CROSS SECTION DIMENSION
  *beamsection, elset=ASSEMBLYSUSPENSIONBRIDGE_SUSPENSIONBRIDGE_TOWER_SOUTH_CS_009, material=CONCRETE, section=BOX

 ***WARNING: ONE OR MORE THICKNESS OF THE BOX SECTION IS GREATER THAN 0.1 OF 
             THE CROSS SECTION DIMENSION. THE TORSIONAL RIGIDITY MAY NOT BE 
             EVALUATED ACCURATELY SINCE THE CALCULATION IS BASED ON THE 
             ASSUMPTION THAT THE WALL THICKNESS IS MUCH SMALL IN COMPARISON TO 
             THE CROSS SECTION DIMENSION
  *beamsection, elset=ASSEMBLYSUSPENSIONBRIDGE_SUSPENSIONBRIDGE_TOWER_NORTH_CS_009, material=CONCRETE, section=BOX

 ***WARNING: ONE OR MORE THICKNESS OF THE BOX SECTION IS GREATER THAN 0.1 OF 
             THE CROSS SECTION DIMENSION. THE TORSIONAL RIGIDITY MAY NOT BE 
             EVALUATED ACCURATELY SINCE THE CALCULATION IS BASED ON THE 
             ASSUMPTION THAT THE WALL THICKNESS IS MUCH SMALL IN COMPARISON TO 
             THE CROSS SECTION DIMENSION
  *beamsection, elset=ASSEMBLYSUSPENSIONBRIDGE_SUSPENSIONBRIDGE_TOWER_SOUTH_CS_010, material=CONCRETE, section=BOX

 ***WARNING: ONE OR MORE THICKNESS OF THE BOX SECTION IS GREATER THAN 0.1 OF 
             THE CROSS SECTION DIMENSION. THE TORSIONAL RIGIDITY MAY NOT BE 
             EVALUATED ACCURATELY SINCE THE CALCULATION IS BASED ON THE 
             ASSUMPTION THAT THE WALL THICKNESS IS MUCH SMALL IN COMPARISON TO 
             THE CROSS SECTION DIMENSION
  *beamsection, elset=ASSEMBLYSUSPENSIONBRIDGE_SUSPENSIONBRIDGE_TOWER_NORTH_CS_010, material=CONCRETE, section=BOX

 ***WARNING: ONE OR MORE THICKNESS OF THE BOX SECTION IS GREATER THAN 0.1 OF 
             THE CROSS SECTION DIMENSION. THE TORSIONAL RIGIDITY MAY NOT BE 
             EVALUATED ACCURATELY SINCE THE CALCULATION IS BASED ON THE 
             ASSUMPTION THAT THE WALL THICKNESS IS MUCH SMALL IN COMPARISON TO 
             THE CROSS SECTION DIMENSION
  *beamsection, elset=ASSEMBLYSUSPENSIONBRIDGE_SUSPENSIONBRIDGE_TOWER_SOUTH_CS_011, material=CONCRETE, section=BOX

 ***WARNING: ONE OR MORE THICKNESS OF THE BOX SECTION IS GREATER THAN 0.1 OF 
             THE CROSS SECTION DIMENSION. THE TORSIONAL RIGIDITY MAY NOT BE 
             EVALUATED ACCURATELY SINCE THE CALCULATION IS BASED ON THE 
             ASSUMPTION THAT THE WALL THICKNESS IS MUCH SMALL IN COMPARISON TO 
             THE CROSS SECTION DIMENSION
  *beamsection, elset=ASSEMBLYSUSPENSIONBRIDGE_SUSPENSIONBRIDGE_TOWER_NORTH_CS_011, material=CONCRETE, section=BOX

 ***WARNING: ONE OR MORE THICKNESS OF THE BOX SECTION IS GREATER THAN 0.1 OF 
             THE CROSS SECTION DIMENSION. THE TORSIONAL RIGIDITY MAY NOT BE 
             EVALUATED ACCURATELY SINCE THE CALCULATION IS BASED ON THE 
             ASSUMPTION THAT THE WALL THICKNESS IS MUCH SMALL IN COMPARISON TO 
             THE CROSS SECTION DIMENSION
  *beamsection, elset=ASSEMBLYSUSPENSIONBRIDGE_SUSPENSIONBRIDGE_TOWER_SOUTH_CS_012, material=CONCRETE, section=BOX

 ***WARNING: ONE OR MORE THICKNESS OF THE BOX SECTION IS GREATER THAN 0.1 OF 
             THE CROSS SECTION DIMENSION. THE TORSIONAL RIGIDITY MAY NOT BE 
             EVALUATED ACCURATELY SINCE THE CALCULATION IS BASED ON THE 
             ASSUMPTION THAT THE WALL THICKNESS IS MUCH SMALL IN COMPARISON TO 
             THE CROSS SECTION DIMENSION
  *beamsection, elset=ASSEMBLYSUSPENSIONBRIDGE_SUSPENSIONBRIDGE_TOWER_NORTH_CS_012, material=CONCRETE, section=BOX

 ***WARNING: ONE OR MORE THICKNESS OF THE BOX SECTION IS GREATER THAN 0.1 OF 
             THE CROSS SECTION DIMENSION. THE TORSIONAL RIGIDITY MAY NOT BE 
             EVALUATED ACCURATELY SINCE THE CALCULATION IS BASED ON THE 
             ASSUMPTION THAT THE WALL THICKNESS IS MUCH SMALL IN COMPARISON TO 
             THE CROSS SECTION DIMENSION
  *beamsection, elset=ASSEMBLYSUSPENSIONBRIDGE_SUSPENSIONBRIDGE_TOWER_SOUTH_CS_013, material=CONCRETE, section=BOX

 ***WARNING: ONE OR MORE THICKNESS OF THE BOX SECTION IS GREATER THAN 0.1 OF 
             THE CROSS SECTION DIMENSION. THE TORSIONAL RIGIDITY MAY NOT BE 
             EVALUATED ACCURATELY SINCE THE CALCULATION IS BASED ON THE 
             ASSUMPTION THAT THE WALL THICKNESS IS MUCH SMALL IN COMPARISON TO 
             THE CROSS SECTION DIMENSION
  *beamsection, elset=ASSEMBLYSUSPENSIONBRIDGE_SUSPENSIONBRIDGE_TOWER_NORTH_CS_013, material=CONCRETE, section=BOX

 ***WARNING: ONE OR MORE THICKNESS OF THE BOX SECTION IS GREATER THAN 0.1 OF 
             THE CROSS SECTION DIMENSION. THE TORSIONAL RIGIDITY MAY NOT BE 
             EVALUATED ACCURATELY SINCE THE CALCULATION IS BASED ON THE 
             ASSUMPTION THAT THE WALL THICKNESS IS MUCH SMALL IN COMPARISON TO 
             THE CROSS SECTION DIMENSION
  *beamsection, elset=ASSEMBLYSUSPENSIONBRIDGE_SUSPENSIONBRIDGE_TOWER_SOUTH_CS_014, material=CONCRETE, section=BOX

 ***WARNING: ONE OR MORE THICKNESS OF THE BOX SECTION IS GREATER THAN 0.1 OF 
             THE CROSS SECTION DIMENSION. THE TORSIONAL RIGIDITY MAY NOT BE 
             EVALUATED ACCURATELY SINCE THE CALCULATION IS BASED ON THE 
             ASSUMPTION THAT THE WALL THICKNESS IS MUCH SMALL IN COMPARISON TO 
             THE CROSS SECTION DIMENSION
  *beamsection, elset=ASSEMBLYSUSPENSIONBRIDGE_SUSPENSIONBRIDGE_TOWER_NORTH_CS_014, material=CONCRETE, section=BOX

 ***WARNING: ONE OR MORE THICKNESS OF THE BOX SECTION IS GREATER THAN 0.1 OF 
             THE CROSS SECTION DIMENSION. THE TORSIONAL RIGIDITY MAY NOT BE 
             EVALUATED ACCURATELY SINCE THE CALCULATION IS BASED ON THE 
             ASSUMPTION THAT THE WALL THICKNESS IS MUCH SMALL IN COMPARISON TO 
             THE CROSS SECTION DIMENSION
  *beamsection, elset=ASSEMBLYSUSPENSIONBRIDGE_SUSPENSIONBRIDGE_TOWER_SOUTH_CS_015, material=CONCRETE, section=BOX

 ***WARNING: ONE OR MORE THICKNESS OF THE BOX SECTION IS GREATER THAN 0.1 OF 
             THE CROSS SECTION DIMENSION. THE TORSIONAL RIGIDITY MAY NOT BE 
             EVALUATED ACCURATELY SINCE THE CALCULATION IS BASED ON THE 
             ASSUMPTION THAT THE WALL THICKNESS IS MUCH SMALL IN COMPARISON TO 
             THE CROSS SECTION DIMENSION
  *beamsection, elset=ASSEMBLYSUSPENSIONBRIDGE_SUSPENSIONBRIDGE_TOWER_NORTH_CS_015, material=CONCRETE, section=BOX

 ***WARNING: ONE OR MORE THICKNESS OF THE BOX SECTION IS GREATER THAN 0.1 OF 
             THE CROSS SECTION DIMENSION. THE TORSIONAL RIGIDITY MAY NOT BE 
             EVALUATED ACCURATELY SINCE THE CALCULATION IS BASED ON THE 
             ASSUMPTION THAT THE WALL THICKNESS IS MUCH SMALL IN COMPARISON TO 
             THE CROSS SECTION DIMENSION
  *beamsection, elset=ASSEMBLYSUSPENSIONBRIDGE_SUSPENSIONBRIDGE_TOWER_SOUTH_CS_016, material=CONCRETE, section=BOX

 ***WARNING: ONE OR MORE THICKNESS OF THE BOX SECTION IS GREATER THAN 0.1 OF 
             THE CROSS SECTION DIMENSION. THE TORSIONAL RIGIDITY MAY NOT BE 
             EVALUATED ACCURATELY SINCE THE CALCULATION IS BASED ON THE 
             ASSUMPTION THAT THE WALL THICKNESS IS MUCH SMALL IN COMPARISON TO 
             THE CROSS SECTION DIMENSION
  *beamsection, elset=ASSEMBLYSUSPENSIONBRIDGE_SUSPENSIONBRIDGE_TOWER_NORTH_CS_016, material=CONCRETE, section=BOX

 ***WARNING: ONE OR MORE THICKNESS OF THE BOX SECTION IS GREATER THAN 0.1 OF 
             THE CROSS SECTION DIMENSION. THE TORSIONAL RIGIDITY MAY NOT BE 
             EVALUATED ACCURATELY SINCE THE CALCULATION IS BASED ON THE 
             ASSUMPTION THAT THE WALL THICKNESS IS MUCH SMALL IN COMPARISON TO 
             THE CROSS SECTION DIMENSION
  *beamsection, elset=ASSEMBLYSUSPENSIONBRIDGE_SUSPENSIONBRIDGE_TOWER_SOUTH_CS_017, material=CONCRETE, section=BOX

 ***WARNING: ONE OR MORE THICKNESS OF THE BOX SECTION IS GREATER THAN 0.1 OF 
             THE CROSS SECTION DIMENSION. THE TORSIONAL RIGIDITY MAY NOT BE 
             EVALUATED ACCURATELY SINCE THE CALCULATION IS BASED ON THE 
             ASSUMPTION THAT THE WALL THICKNESS IS MUCH SMALL IN COMPARISON TO 
             THE CROSS SECTION DIMENSION
  *beamsection, elset=ASSEMBLYSUSPENSIONBRIDGE_SUSPENSIONBRIDGE_TOWER_NORTH_CS_017, material=CONCRETE, section=BOX

 ***WARNING: ONE OR MORE THICKNESS OF THE BOX SECTION IS GREATER THAN 0.1 OF 
             THE CROSS SECTION DIMENSION. THE TORSIONAL RIGIDITY MAY NOT BE 
             EVALUATED ACCURATELY SINCE THE CALCULATION IS BASED ON THE 
             ASSUMPTION THAT THE WALL THICKNESS IS MUCH SMALL IN COMPARISON TO 
             THE CROSS SECTION DIMENSION
  *beamsection, elset=ASSEMBLYSUSPENSIONBRIDGE_SUSPENSIONBRIDGE_TOWER_SOUTH_CS_018, material=CONCRETE, section=BOX

 ***WARNING: ONE OR MORE THICKNESS OF THE BOX SECTION IS GREATER THAN 0.1 OF 
             THE CROSS SECTION DIMENSION. THE TORSIONAL RIGIDITY MAY NOT BE 
             EVALUATED ACCURATELY SINCE THE CALCULATION IS BASED ON THE 
             ASSUMPTION THAT THE WALL THICKNESS IS MUCH SMALL IN COMPARISON TO 
             THE CROSS SECTION DIMENSION
  *beamsection, elset=ASSEMBLYSUSPENSIONBRIDGE_SUSPENSIONBRIDGE_TOWER_NORTH_CS_018, material=CONCRETE, section=BOX

 ***WARNING: ONE OR MORE THICKNESS OF THE BOX SECTION IS GREATER THAN 0.1 OF 
             THE CROSS SECTION DIMENSION. THE TORSIONAL RIGIDITY MAY NOT BE 
             EVALUATED ACCURATELY SINCE THE CALCULATION IS BASED ON THE 
             ASSUMPTION THAT THE WALL THICKNESS IS MUCH SMALL IN COMPARISON TO 
             THE CROSS SECTION DIMENSION
  *beamsection, elset=ASSEMBLYSUSPENSIONBRIDGE_SUSPENSIONBRIDGE_TOWER_SOUTH_CS_019, material=CONCRETE, section=BOX

 ***WARNING: ONE OR MORE THICKNESS OF THE BOX SECTION IS GREATER THAN 0.1 OF 
             THE CROSS SECTION DIMENSION. THE TORSIONAL RIGIDITY MAY NOT BE 
             EVALUATED ACCURATELY SINCE THE CALCULATION IS BASED ON THE 
             ASSUMPTION THAT THE WALL THICKNESS IS MUCH SMALL IN COMPARISON TO 
             THE CROSS SECTION DIMENSION
  *beamsection, elset=ASSEMBLYSUSPENSIONBRIDGE_SUSPENSIONBRIDGE_TOWER_NORTH_CS_019, material=CONCRETE, section=BOX

 ***WARNING: ONE OR MORE THICKNESS OF THE BOX SECTION IS GREATER THAN 0.1 OF 
             THE CROSS SECTION DIMENSION. THE TORSIONAL RIGIDITY MAY NOT BE 
             EVALUATED ACCURATELY SINCE THE CALCULATION IS BASED ON THE 
             ASSUMPTION THAT THE WALL THICKNESS IS MUCH SMALL IN COMPARISON TO 
             THE CROSS SECTION DIMENSION
  *beamsection, elset=ASSEMBLYSUSPENSIONBRIDGE_SUSPENSIONBRIDGE_TOWER_SOUTH_CS_020, material=CONCRETE, section=BOX

 ***WARNING: ONE OR MORE THICKNESS OF THE BOX SECTION IS GREATER THAN 0.1 OF 
             THE CROSS SECTION DIMENSION. THE TORSIONAL RIGIDITY MAY NOT BE 
             EVALUATED ACCURATELY SINCE THE CALCULATION IS BASED ON THE 
             ASSUMPTION THAT THE WALL THICKNESS IS MUCH SMALL IN COMPARISON TO 
             THE CROSS SECTION DIMENSION
  *beamsection, elset=ASSEMBLYSUSPENSIONBRIDGE_SUSPENSIONBRIDGE_TOWER_NORTH_CS_020, material=CONCRETE, section=BOX

 ***WARNING: ONE OR MORE THICKNESS OF THE BOX SECTION IS GREATER THAN 0.1 OF 
             THE CROSS SECTION DIMENSION. THE TORSIONAL RIGIDITY MAY NOT BE 
             EVALUATED ACCURATELY SINCE THE CALCULATION IS BASED ON THE 
             ASSUMPTION THAT THE WALL THICKNESS IS MUCH SMALL IN COMPARISON TO 
             THE CROSS SECTION DIMENSION
  *beamsection, elset=ASSEMBLYSUSPENSIONBRIDGE_SUSPENSIONBRIDGE_TOWER_SOUTH_CS_021, material=CONCRETE, section=BOX

 ***WARNING: ONE OR MORE THICKNESS OF THE BOX SECTION IS GREATER THAN 0.1 OF 
             THE CROSS SECTION DIMENSION. THE TORSIONAL RIGIDITY MAY NOT BE 
             EVALUATED ACCURATELY SINCE THE CALCULATION IS BASED ON THE 
             ASSUMPTION THAT THE WALL THICKNESS IS MUCH SMALL IN COMPARISON TO 
             THE CROSS SECTION DIMENSION
  *beamsection, elset=ASSEMBLYSUSPENSIONBRIDGE_SUSPENSIONBRIDGE_TOWER_NORTH_CS_021, material=CONCRETE, section=BOX

 ***WARNING: ONE OR MORE THICKNESS OF THE BOX SECTION IS GREATER THAN 0.1 OF 
             THE CROSS SECTION DIMENSION. THE TORSIONAL RIGIDITY MAY NOT BE 
             EVALUATED ACCURATELY SINCE THE CALCULATION IS BASED ON THE 
             ASSUMPTION THAT THE WALL THICKNESS IS MUCH SMALL IN COMPARISON TO 
             THE CROSS SECTION DIMENSION
  *beamsection, elset=ASSEMBLYSUSPENSIONBRIDGE_SUSPENSIONBRIDGE_TOWER_SOUTH_CS_022, material=CONCRETE, section=BOX

 ***WARNING: ONE OR MORE THICKNESS OF THE BOX SECTION IS GREATER THAN 0.1 OF 
             THE CROSS SECTION DIMENSION. THE TORSIONAL RIGIDITY MAY NOT BE 
             EVALUATED ACCURATELY SINCE THE CALCULATION IS BASED ON THE 
             ASSUMPTION THAT THE WALL THICKNESS IS MUCH SMALL IN COMPARISON TO 
             THE CROSS SECTION DIMENSION
  *beamsection, elset=ASSEMBLYSUSPENSIONBRIDGE_SUSPENSIONBRIDGE_TOWER_NORTH_CS_022, material=CONCRETE, section=BOX

 ***WARNING: ONE OR MORE THICKNESS OF THE BOX SECTION IS GREATER THAN 0.1 OF 
             THE CROSS SECTION DIMENSION. THE TORSIONAL RIGIDITY MAY NOT BE 
             EVALUATED ACCURATELY SINCE THE CALCULATION IS BASED ON THE 
             ASSUMPTION THAT THE WALL THICKNESS IS MUCH SMALL IN COMPARISON TO 
             THE CROSS SECTION DIMENSION
  *beamsection, elset=ASSEMBLYSUSPENSIONBRIDGE_SUSPENSIONBRIDGE_TOWER_SOUTH_CS_023, material=CONCRETE, section=BOX

 ***WARNING: ONE OR MORE THICKNESS OF THE BOX SECTION IS GREATER THAN 0.1 OF 
             THE CROSS SECTION DIMENSION. THE TORSIONAL RIGIDITY MAY NOT BE 
             EVALUATED ACCURATELY SINCE THE CALCULATION IS BASED ON THE 
             ASSUMPTION THAT THE WALL THICKNESS IS MUCH SMALL IN COMPARISON TO 
             THE CROSS SECTION DIMENSION
  *beamsection, elset=ASSEMBLYSUSPENSIONBRIDGE_SUSPENSIONBRIDGE_TOWER_NORTH_CS_023, material=CONCRETE, section=BOX

 ***WARNING: ONE OR MORE THICKNESS OF THE BOX SECTION IS GREATER THAN 0.1 OF 
             THE CROSS SECTION DIMENSION. THE TORSIONAL RIGIDITY MAY NOT BE 
             EVALUATED ACCURATELY SINCE THE CALCULATION IS BASED ON THE 
             ASSUMPTION THAT THE WALL THICKNESS IS MUCH SMALL IN COMPARISON TO 
             THE CROSS SECTION DIMENSION
  *beamsection, elset=ASSEMBLYSUSPENSIONBRIDGE_SUSPENSIONBRIDGE_TOWER_SOUTH_CS_024, material=CONCRETE, section=BOX

 ***WARNING: ONE OR MORE THICKNESS OF THE BOX SECTION IS GREATER THAN 0.1 OF 
             THE CROSS SECTION DIMENSION. THE TORSIONAL RIGIDITY MAY NOT BE 
             EVALUATED ACCURATELY SINCE THE CALCULATION IS BASED ON THE 
             ASSUMPTION THAT THE WALL THICKNESS IS MUCH SMALL IN COMPARISON TO 
             THE CROSS SECTION DIMENSION
  *beamsection, elset=ASSEMBLYSUSPENSIONBRIDGE_SUSPENSIONBRIDGE_TOWER_NORTH_CS_024, material=CONCRETE, section=BOX

 ***WARNING: ONE OR MORE THICKNESS OF THE BOX SECTION IS GREATER THAN 0.1 OF 
             THE CROSS SECTION DIMENSION. THE TORSIONAL RIGIDITY MAY NOT BE 
             EVALUATED ACCURATELY SINCE THE CALCULATION IS BASED ON THE 
             ASSUMPTION THAT THE WALL THICKNESS IS MUCH SMALL IN COMPARISON TO 
             THE CROSS SECTION DIMENSION
  *beamsection, elset=ASSEMBLYSUSPENSIONBRIDGE_SUSPENSIONBRIDGE_TOWER_SOUTH_CS_025, material=CONCRETE, section=BOX

 ***WARNING: ONE OR MORE THICKNESS OF THE BOX SECTION IS GREATER THAN 0.1 OF 
             THE CROSS SECTION DIMENSION. THE TORSIONAL RIGIDITY MAY NOT BE 
             EVALUATED ACCURATELY SINCE THE CALCULATION IS BASED ON THE 
             ASSUMPTION THAT THE WALL THICKNESS IS MUCH SMALL IN COMPARISON TO 
             THE CROSS SECTION DIMENSION
  *beamsection, elset=ASSEMBLYSUSPENSIONBRIDGE_SUSPENSIONBRIDGE_TOWER_NORTH_CS_025, material=CONCRETE, section=BOX

 ***WARNING: ONE OR MORE THICKNESS OF THE BOX SECTION IS GREATER THAN 0.1 OF 
             THE CROSS SECTION DIMENSION. THE TORSIONAL RIGIDITY MAY NOT BE 
             EVALUATED ACCURATELY SINCE THE CALCULATION IS BASED ON THE 
             ASSUMPTION THAT THE WALL THICKNESS IS MUCH SMALL IN COMPARISON TO 
             THE CROSS SECTION DIMENSION
  *beamsection, elset=ASSEMBLYSUSPENSIONBRIDGE_SUSPENSIONBRIDGE_TOWER_SOUTH_CS_026, material=CONCRETE, section=BOX

 ***WARNING: ONE OR MORE THICKNESS OF THE BOX SECTION IS GREATER THAN 0.1 OF 
             THE CROSS SECTION DIMENSION. THE TORSIONAL RIGIDITY MAY NOT BE 
             EVALUATED ACCURATELY SINCE THE CALCULATION IS BASED ON THE 
             ASSUMPTION THAT THE WALL THICKNESS IS MUCH SMALL IN COMPARISON TO 
             THE CROSS SECTION DIMENSION
  *beamsection, elset=ASSEMBLYSUSPENSIONBRIDGE_SUSPENSIONBRIDGE_TOWER_NORTH_CS_026, material=CONCRETE, section=BOX

 ***WARNING: ONE OR MORE THICKNESS OF THE BOX SECTION IS GREATER THAN 0.1 OF 
             THE CROSS SECTION DIMENSION. THE TORSIONAL RIGIDITY MAY NOT BE 
             EVALUATED ACCURATELY SINCE THE CALCULATION IS BASED ON THE 
             ASSUMPTION THAT THE WALL THICKNESS IS MUCH SMALL IN COMPARISON TO 
             THE CROSS SECTION DIMENSION
  *beamsection, elset=ASSEMBLYSUSPENSIONBRIDGE_SUSPENSIONBRIDGE_TOWER_SOUTH_CS_027, material=CONCRETE, section=BOX

 ***WARNING: ONE OR MORE THICKNESS OF THE BOX SECTION IS GREATER THAN 0.1 OF 
             THE CROSS SECTION DIMENSION. THE TORSIONAL RIGIDITY MAY NOT BE 
             EVALUATED ACCURATELY SINCE THE CALCULATION IS BASED ON THE 
             ASSUMPTION THAT THE WALL THICKNESS IS MUCH SMALL IN COMPARISON TO 
             THE CROSS SECTION DIMENSION
  *beamsection, elset=ASSEMBLYSUSPENSIONBRIDGE_SUSPENSIONBRIDGE_TOWER_NORTH_CS_027, material=CONCRETE, section=BOX

 ***WARNING: ONE OR MORE THICKNESS OF THE BOX SECTION IS GREATER THAN 0.1 OF 
             THE CROSS SECTION DIMENSION. THE TORSIONAL RIGIDITY MAY NOT BE 
             EVALUATED ACCURATELY SINCE THE CALCULATION IS BASED ON THE 
             ASSUMPTION THAT THE WALL THICKNESS IS MUCH SMALL IN COMPARISON TO 
             THE CROSS SECTION DIMENSION
  *beamsection, elset=ASSEMBLYSUSPENSIONBRIDGE_SUSPENSIONBRIDGE_TOWER_SOUTH_CS_028, material=CONCRETE, section=BOX

 ***WARNING: ONE OR MORE THICKNESS OF THE BOX SECTION IS GREATER THAN 0.1 OF 
             THE CROSS SECTION DIMENSION. THE TORSIONAL RIGIDITY MAY NOT BE 
             EVALUATED ACCURATELY SINCE THE CALCULATION IS BASED ON THE 
             ASSUMPTION THAT THE WALL THICKNESS IS MUCH SMALL IN COMPARISON TO 
             THE CROSS SECTION DIMENSION
  *beamsection, elset=ASSEMBLYSUSPENSIONBRIDGE_SUSPENSIONBRIDGE_TOWER_NORTH_CS_028, material=CONCRETE, section=BOX

 ***WARNING: ONE OR MORE THICKNESS OF THE BOX SECTION IS GREATER THAN 0.1 OF 
             THE CROSS SECTION DIMENSION. THE TORSIONAL RIGIDITY MAY NOT BE 
             EVALUATED ACCURATELY SINCE THE CALCULATION IS BASED ON THE 
             ASSUMPTION THAT THE WALL THICKNESS IS MUCH SMALL IN COMPARISON TO 
             THE CROSS SECTION DIMENSION
  *beamsection, elset=ASSEMBLYSUSPENSIONBRIDGE_SUSPENSIONBRIDGE_TOWER_SOUTH_CS_029, material=CONCRETE, section=BOX

 ***WARNING: ONE OR MORE THICKNESS OF THE BOX SECTION IS GREATER THAN 0.1 OF 
             THE CROSS SECTION DIMENSION. THE TORSIONAL RIGIDITY MAY NOT BE 
             EVALUATED ACCURATELY SINCE THE CALCULATION IS BASED ON THE 
             ASSUMPTION THAT THE WALL THICKNESS IS MUCH SMALL IN COMPARISON TO 
             THE CROSS SECTION DIMENSION
  *beamsection, elset=ASSEMBLYSUSPENSIONBRIDGE_SUSPENSIONBRIDGE_TOWER_NORTH_CS_029, material=CONCRETE, section=BOX

 ***WARNING: ONE OR MORE THICKNESS OF THE BOX SECTION IS GREATER THAN 0.1 OF 
             THE CROSS SECTION DIMENSION. THE TORSIONAL RIGIDITY MAY NOT BE 
             EVALUATED ACCURATELY SINCE THE CALCULATION IS BASED ON THE 
             ASSUMPTION THAT THE WALL THICKNESS IS MUCH SMALL IN COMPARISON TO 
             THE CROSS SECTION DIMENSION
  *beamsection, elset=ASSEMBLYSUSPENSIONBRIDGE_SUSPENSIONBRIDGE_TOWER_SOUTH_CS_030, material=CONCRETE, section=BOX

 ***WARNING: ONE OR MORE THICKNESS OF THE BOX SECTION IS GREATER THAN 0.1 OF 
             THE CROSS SECTION DIMENSION. THE TORSIONAL RIGIDITY MAY NOT BE 
             EVALUATED ACCURATELY SINCE THE CALCULATION IS BASED ON THE 
             ASSUMPTION THAT THE WALL THICKNESS IS MUCH SMALL IN COMPARISON TO 
             THE CROSS SECTION DIMENSION
  *beamsection, elset=ASSEMBLYSUSPENSIONBRIDGE_SUSPENSIONBRIDGE_TOWER_NORTH_CS_030, material=CONCRETE, section=BOX

 ***WARNING: ONE OR MORE THICKNESS OF THE BOX SECTION IS GREATER THAN 0.1 OF 
             THE CROSS SECTION DIMENSION. THE TORSIONAL RIGIDITY MAY NOT BE 
             EVALUATED ACCURATELY SINCE THE CALCULATION IS BASED ON THE 
             ASSUMPTION THAT THE WALL THICKNESS IS MUCH SMALL IN COMPARISON TO 
             THE CROSS SECTION DIMENSION
  *beamsection, elset=ASSEMBLYSUSPENSIONBRIDGE_SUSPENSIONBRIDGE_TOWER_SOUTH_CS_031, material=CONCRETE, section=BOX

 ***WARNING: ONE OR MORE THICKNESS OF THE BOX SECTION IS GREATER THAN 0.1 OF 
             THE CROSS SECTION DIMENSION. THE TORSIONAL RIGIDITY MAY NOT BE 
             EVALUATED ACCURATELY SINCE THE CALCULATION IS BASED ON THE 
             ASSUMPTION THAT THE WALL THICKNESS IS MUCH SMALL IN COMPARISON TO 
             THE CROSS SECTION DIMENSION
  *beamsection, elset=ASSEMBLYSUSPENSIONBRIDGE_SUSPENSIONBRIDGE_TOWER_NORTH_CS_031, material=CONCRETE, section=BOX

 ***WARNING: ONE OR MORE THICKNESS OF THE BOX SECTION IS GREATER THAN 0.1 OF 
             THE CROSS SECTION DIMENSION. THE TORSIONAL RIGIDITY MAY NOT BE 
             EVALUATED ACCURATELY SINCE THE CALCULATION IS BASED ON THE 
             ASSUMPTION THAT THE WALL THICKNESS IS MUCH SMALL IN COMPARISON TO 
             THE CROSS SECTION DIMENSION
  *beamsection, elset=ASSEMBLYSUSPENSIONBRIDGE_SUSPENSIONBRIDGE_TOWER_SOUTH_CS_032, material=CONCRETE, section=BOX

 ***WARNING: ONE OR MORE THICKNESS OF THE BOX SECTION IS GREATER THAN 0.1 OF 
             THE CROSS SECTION DIMENSION. THE TORSIONAL RIGIDITY MAY NOT BE 
             EVALUATED ACCURATELY SINCE THE CALCULATION IS BASED ON THE 
             ASSUMPTION THAT THE WALL THICKNESS IS MUCH SMALL IN COMPARISON TO 
             THE CROSS SECTION DIMENSION
  *beamsection, elset=ASSEMBLYSUSPENSIONBRIDGE_SUSPENSIONBRIDGE_TOWER_NORTH_CS_032, material=CONCRETE, section=BOX

 ***WARNING: ONE OR MORE THICKNESS OF THE BOX SECTION IS GREATER THAN 0.1 OF 
             THE CROSS SECTION DIMENSION. THE TORSIONAL RIGIDITY MAY NOT BE 
             EVALUATED ACCURATELY SINCE THE CALCULATION IS BASED ON THE 
             ASSUMPTION THAT THE WALL THICKNESS IS MUCH SMALL IN COMPARISON TO 
             THE CROSS SECTION DIMENSION
  *beamsection, elset=ASSEMBLYSUSPENSIONBRIDGE_SUSPENSIONBRIDGE_TOWER_SOUTH_CS_033, material=CONCRETE, section=BOX

 ***WARNING: ONE OR MORE THICKNESS OF THE BOX SECTION IS GREATER THAN 0.1 OF 
             THE CROSS SECTION DIMENSION. THE TORSIONAL RIGIDITY MAY NOT BE 
             EVALUATED ACCURATELY SINCE THE CALCULATION IS BASED ON THE 
             ASSUMPTION THAT THE WALL THICKNESS IS MUCH SMALL IN COMPARISON TO 
             THE CROSS SECTION DIMENSION
  *beamsection, elset=ASSEMBLYSUSPENSIONBRIDGE_SUSPENSIONBRIDGE_TOWER_NORTH_CS_033, material=CONCRETE, section=BOX

 ***WARNING: ONE OR MORE THICKNESS OF THE BOX SECTION IS GREATER THAN 0.1 OF 
             THE CROSS SECTION DIMENSION. THE TORSIONAL RIGIDITY MAY NOT BE 
             EVALUATED ACCURATELY SINCE THE CALCULATION IS BASED ON THE 
             ASSUMPTION THAT THE WALL THICKNESS IS MUCH SMALL IN COMPARISON TO 
             THE CROSS SECTION DIMENSION
  *beamsection, elset=ASSEMBLYSUSPENSIONBRIDGE_SUSPENSIONBRIDGE_TOWER_SOUTH_CS_034, material=CONCRETE, section=BOX

 ***WARNING: ONE OR MORE THICKNESS OF THE BOX SECTION IS GREATER THAN 0.1 OF 
             THE CROSS SECTION DIMENSION. THE TORSIONAL RIGIDITY MAY NOT BE 
             EVALUATED ACCURATELY SINCE THE CALCULATION IS BASED ON THE 
             ASSUMPTION THAT THE WALL THICKNESS IS MUCH SMALL IN COMPARISON TO 
             THE CROSS SECTION DIMENSION
  *beamsection, elset=ASSEMBLYSUSPENSIONBRIDGE_SUSPENSIONBRIDGE_TOWER_NORTH_CS_034, material=CONCRETE, section=BOX

 ***WARNING: ONE OR MORE THICKNESS OF THE BOX SECTION IS GREATER THAN 0.1 OF 
             THE CROSS SECTION DIMENSION. THE TORSIONAL RIGIDITY MAY NOT BE 
             EVALUATED ACCURATELY SINCE THE CALCULATION IS BASED ON THE 
             ASSUMPTION THAT THE WALL THICKNESS IS MUCH SMALL IN COMPARISON TO 
             THE CROSS SECTION DIMENSION
  *beamsection, elset=ASSEMBLYSUSPENSIONBRIDGE_SUSPENSIONBRIDGE_TOWER_SOUTH_CS_035, material=CONCRETE, section=BOX

 ***WARNING: ONE OR MORE THICKNESS OF THE BOX SECTION IS GREATER THAN 0.1 OF 
             THE CROSS SECTION DIMENSION. THE TORSIONAL RIGIDITY MAY NOT BE 
             EVALUATED ACCURATELY SINCE THE CALCULATION IS BASED ON THE 
             ASSUMPTION THAT THE WALL THICKNESS IS MUCH SMALL IN COMPARISON TO 
             THE CROSS SECTION DIMENSION
  *beamsection, elset=ASSEMBLYSUSPENSIONBRIDGE_SUSPENSIONBRIDGE_TOWER_NORTH_CS_035, material=CONCRETE, section=BOX

 ***WARNING: ONE OR MORE THICKNESS OF THE BOX SECTION IS GREATER THAN 0.1 OF 
             THE CROSS SECTION DIMENSION. THE TORSIONAL RIGIDITY MAY NOT BE 
             EVALUATED ACCURATELY SINCE THE CALCULATION IS BASED ON THE 
             ASSUMPTION THAT THE WALL THICKNESS IS MUCH SMALL IN COMPARISON TO 
             THE CROSS SECTION DIMENSION
  *beamsection, elset=ASSEMBLYSUSPENSIONBRIDGE_SUSPENSIONBRIDGE_TOWER_SOUTH_CS_036, material=CONCRETE, section=BOX

 ***WARNING: ONE OR MORE THICKNESS OF THE BOX SECTION IS GREATER THAN 0.1 OF 
             THE CROSS SECTION DIMENSION. THE TORSIONAL RIGIDITY MAY NOT BE 
             EVALUATED ACCURATELY SINCE THE CALCULATION IS BASED ON THE 
             ASSUMPTION THAT THE WALL THICKNESS IS MUCH SMALL IN COMPARISON TO 
             THE CROSS SECTION DIMENSION
  *beamsection, elset=ASSEMBLYSUSPENSIONBRIDGE_SUSPENSIONBRIDGE_TOWER_NORTH_CS_036, material=CONCRETE, section=BOX

 ***WARNING: ONE OR MORE THICKNESS OF THE BOX SECTION IS GREATER THAN 0.1 OF 
             THE CROSS SECTION DIMENSION. THE TORSIONAL RIGIDITY MAY NOT BE 
             EVALUATED ACCURATELY SINCE THE CALCULATION IS BASED ON THE 
             ASSUMPTION THAT THE WALL THICKNESS IS MUCH SMALL IN COMPARISON TO 
             THE CROSS SECTION DIMENSION
  *beamsection, elset=ASSEMBLYSUSPENSIONBRIDGE_SUSPENSIONBRIDGE_TOWER_SOUTH_CS_037, material=CONCRETE, section=BOX

 ***WARNING: ONE OR MORE THICKNESS OF THE BOX SECTION IS GREATER THAN 0.1 OF 
             THE CROSS SECTION DIMENSION. THE TORSIONAL RIGIDITY MAY NOT BE 
             EVALUATED ACCURATELY SINCE THE CALCULATION IS BASED ON THE 
             ASSUMPTION THAT THE WALL THICKNESS IS MUCH SMALL IN COMPARISON TO 
             THE CROSS SECTION DIMENSION
  *beamsection, elset=ASSEMBLYSUSPENSIONBRIDGE_SUSPENSIONBRIDGE_TOWER_NORTH_CS_037, material=CONCRETE, section=BOX

 ***WARNING: ONE OR MORE THICKNESS OF THE BOX SECTION IS GREATER THAN 0.1 OF 
             THE CROSS SECTION DIMENSION. THE TORSIONAL RIGIDITY MAY NOT BE 
             EVALUATED ACCURATELY SINCE THE CALCULATION IS BASED ON THE 
             ASSUMPTION THAT THE WALL THICKNESS IS MUCH SMALL IN COMPARISON TO 
             THE CROSS SECTION DIMENSION
  *beamsection, elset=ASSEMBLYSUSPENSIONBRIDGE_SUSPENSIONBRIDGE_TOWER_SOUTH_CS_038, material=CONCRETE, section=BOX

 ***WARNING: ONE OR MORE THICKNESS OF THE BOX SECTION IS GREATER THAN 0.1 OF 
             THE CROSS SECTION DIMENSION. THE TORSIONAL RIGIDITY MAY NOT BE 
             EVALUATED ACCURATELY SINCE THE CALCULATION IS BASED ON THE 
             ASSUMPTION THAT THE WALL THICKNESS IS MUCH SMALL IN COMPARISON TO 
             THE CROSS SECTION DIMENSION
  *beamsection, elset=ASSEMBLYSUSPENSIONBRIDGE_SUSPENSIONBRIDGE_TOWER_NORTH_CS_038, material=CONCRETE, section=BOX

 ***WARNING: ONE OR MORE THICKNESS OF THE BOX SECTION IS GREATER THAN 0.1 OF 
             THE CROSS SECTION DIMENSION. THE TORSIONAL RIGIDITY MAY NOT BE 
             EVALUATED ACCURATELY SINCE THE CALCULATION IS BASED ON THE 
             ASSUMPTION THAT THE WALL THICKNESS IS MUCH SMALL IN COMPARISON TO 
             THE CROSS SECTION DIMENSION
  *beamsection, elset=ASSEMBLYSUSPENSIONBRIDGE_SUSPENSIONBRIDGE_TOWER_SOUTH_CS_039, material=CONCRETE, section=BOX

 ***WARNING: ONE OR MORE THICKNESS OF THE BOX SECTION IS GREATER THAN 0.1 OF 
             THE CROSS SECTION DIMENSION. THE TORSIONAL RIGIDITY MAY NOT BE 
             EVALUATED ACCURATELY SINCE THE CALCULATION IS BASED ON THE 
             ASSUMPTION THAT THE WALL THICKNESS IS MUCH SMALL IN COMPARISON TO 
             THE CROSS SECTION DIMENSION
  *beamsection, elset=ASSEMBLYSUSPENSIONBRIDGE_SUSPENSIONBRIDGE_TOWER_NORTH_CS_039, material=CONCRETE, section=BOX

 ***WARNING: ONE OR MORE THICKNESS OF THE BOX SECTION IS GREATER THAN 0.1 OF 
             THE CROSS SECTION DIMENSION. THE TORSIONAL RIGIDITY MAY NOT BE 
             EVALUATED ACCURATELY SINCE THE CALCULATION IS BASED ON THE 
             ASSUMPTION THAT THE WALL THICKNESS IS MUCH SMALL IN COMPARISON TO 
             THE CROSS SECTION DIMENSION
  *beamsection, elset=ASSEMBLYSUSPENSIONBRIDGE_SUSPENSIONBRIDGE_TOWER_SOUTH_CS_040, material=CONCRETE, section=BOX

 ***WARNING: ONE OR MORE THICKNESS OF THE BOX SECTION IS GREATER THAN 0.1 OF 
             THE CROSS SECTION DIMENSION. THE TORSIONAL RIGIDITY MAY NOT BE 
             EVALUATED ACCURATELY SINCE THE CALCULATION IS BASED ON THE 
             ASSUMPTION THAT THE WALL THICKNESS IS MUCH SMALL IN COMPARISON TO 
             THE CROSS SECTION DIMENSION
  *beamsection, elset=ASSEMBLYSUSPENSIONBRIDGE_SUSPENSIONBRIDGE_TOWER_NORTH_CS_040, material=CONCRETE, section=BOX

 ***WARNING: ONE OR MORE THICKNESS OF THE BOX SECTION IS GREATER THAN 0.1 OF 
             THE CROSS SECTION DIMENSION. THE TORSIONAL RIGIDITY MAY NOT BE 
             EVALUATED ACCURATELY SINCE THE CALCULATION IS BASED ON THE 
             ASSUMPTION THAT THE WALL THICKNESS IS MUCH SMALL IN COMPARISON TO 
             THE CROSS SECTION DIMENSION
  *beamsection, elset=ASSEMBLYSUSPENSIONBRIDGE_SUSPENSIONBRIDGE_TOWER_SOUTH_CS_041, material=CONCRETE, section=BOX

 ***WARNING: ONE OR MORE THICKNESS OF THE BOX SECTION IS GREATER THAN 0.1 OF 
             THE CROSS SECTION DIMENSION. THE TORSIONAL RIGIDITY MAY NOT BE 
             EVALUATED ACCURATELY SINCE THE CALCULATION IS BASED ON THE 
             ASSUMPTION THAT THE WALL THICKNESS IS MUCH SMALL IN COMPARISON TO 
             THE CROSS SECTION DIMENSION
  *beamsection, elset=ASSEMBLYSUSPENSIONBRIDGE_SUSPENSIONBRIDGE_TOWER_NORTH_CS_041, material=CONCRETE, section=BOX

 ***WARNING: ONE OR MORE THICKNESS OF THE BOX SECTION IS GREATER THAN 0.1 OF 
             THE CROSS SECTION DIMENSION. THE TORSIONAL RIGIDITY MAY NOT BE 
             EVALUATED ACCURATELY SINCE THE CALCULATION IS BASED ON THE 
             ASSUMPTION THAT THE WALL THICKNESS IS MUCH SMALL IN COMPARISON TO 
             THE CROSS SECTION DIMENSION
  *beamsection, elset=ASSEMBLYSUSPENSIONBRIDGE_SUSPENSIONBRIDGE_TOWER_SOUTH_CS_042, material=CONCRETE, section=BOX

 ***WARNING: ONE OR MORE THICKNESS OF THE BOX SECTION IS GREATER THAN 0.1 OF 
             THE CROSS SECTION DIMENSION. THE TORSIONAL RIGIDITY MAY NOT BE 
             EVALUATED ACCURATELY SINCE THE CALCULATION IS BASED ON THE 
             ASSUMPTION THAT THE WALL THICKNESS IS MUCH SMALL IN COMPARISON TO 
             THE CROSS SECTION DIMENSION
  *beamsection, elset=ASSEMBLYSUSPENSIONBRIDGE_SUSPENSIONBRIDGE_TOWER_NORTH_CS_042, material=CONCRETE, section=BOX

 ***WARNING: ONE OR MORE THICKNESS OF THE BOX SECTION IS GREATER THAN 0.1 OF 
             THE CROSS SECTION DIMENSION. THE TORSIONAL RIGIDITY MAY NOT BE 
             EVALUATED ACCURATELY SINCE THE CALCULATION IS BASED ON THE 
             ASSUMPTION THAT THE WALL THICKNESS IS MUCH SMALL IN COMPARISON TO 
             THE CROSS SECTION DIMENSION
  *beamsection, elset=ASSEMBLYSUSPENSIONBRIDGE_SUSPENSIONBRIDGE_TOWER_CROSSBEAM_SOUTH_1, material=CONCRETE, section=BOX

 ***WARNING: ONE OR MORE THICKNESS OF THE BOX SECTION IS GREATER THAN 0.1 OF 
             THE CROSS SECTION DIMENSION. THE TORSIONAL RIGIDITY MAY NOT BE 
             EVALUATED ACCURATELY SINCE THE CALCULATION IS BASED ON THE 
             ASSUMPTION THAT THE WALL THICKNESS IS MUCH SMALL IN COMPARISON TO 
             THE CROSS SECTION DIMENSION
  *beamsection, elset=ASSEMBLYSUSPENSIONBRIDGE_SUSPENSIONBRIDGE_TOWER_CROSSBEAM_NORTH_1, material=CONCRETE, section=BOX

 ***WARNING: ONE OR MORE THICKNESS OF THE BOX SECTION IS GREATER THAN 0.1 OF 
             THE CROSS SECTION DIMENSION. THE TORSIONAL RIGIDITY MAY NOT BE 
             EVALUATED ACCURATELY SINCE THE CALCULATION IS BASED ON THE 
             ASSUMPTION THAT THE WALL THICKNESS IS MUCH SMALL IN COMPARISON TO 
             THE CROSS SECTION DIMENSION
  *beamsection, elset=ASSEMBLYSUSPENSIONBRIDGE_SUSPENSIONBRIDGE_TOWER_CROSSBEAM_SOUTH_2, material=CONCRETE, section=BOX

 ***WARNING: ONE OR MORE THICKNESS OF THE BOX SECTION IS GREATER THAN 0.1 OF 
             THE CROSS SECTION DIMENSION. THE TORSIONAL RIGIDITY MAY NOT BE 
             EVALUATED ACCURATELY SINCE THE CALCULATION IS BASED ON THE 
             ASSUMPTION THAT THE WALL THICKNESS IS MUCH SMALL IN COMPARISON TO 
             THE CROSS SECTION DIMENSION
  *beamsection, elset=ASSEMBLYSUSPENSIONBRIDGE_SUSPENSIONBRIDGE_TOWER_CROSSBEAM_NORTH_2, material=CONCRETE, section=BOX

 ***WARNING: ONE OR MORE THICKNESS OF THE BOX SECTION IS GREATER THAN 0.1 OF 
             THE CROSS SECTION DIMENSION. THE TORSIONAL RIGIDITY MAY NOT BE 
             EVALUATED ACCURATELY SINCE THE CALCULATION IS BASED ON THE 
             ASSUMPTION THAT THE WALL THICKNESS IS MUCH SMALL IN COMPARISON TO 
             THE CROSS SECTION DIMENSION
  *beamsection, elset=ASSEMBLYSUSPENSIONBRIDGE_SUSPENSIONBRIDGE_BEARINGPENDULUM, material=STEEL, section=BOX
  *beamgeneralsection, elset=ASSEMBLYSUSPENSIONBRIDGE_SUSPENSIONBRIDGE_CABLE_MAIN, density=7850, section=GENERAL
  *beamgeneralsection, elset=ASSEMBLYSUSPENSIONBRIDGE_SUSPENSIONBRIDGE_CABLE_TEMPSUPPORT, density=0, section=GENERAL
  *beamgeneralsection, elset=ASSEMBLYSUSPENSIONBRIDGE_SUSPENSIONBRIDGE_LATCONNOUTER, density=0, section=GENERAL
  *beamgeneralsection, elset=ASSEMBLYSUSPENSIONBRIDGE_SUSPENSIONBRIDGE_BRIDGEDECK_COG, density=0, section=GENERAL
  *beamaddedinertia
  *beamaddedinertia
  *shearcenter
  *beamgeneralsection, elset=ASSEMBLYSUSPENSIONBRIDGE_SUSPENSIONBRIDGE_HANGER, density=7850, section=GENERAL
  *beamgeneralsection, elset=ASSEMBLYSUSPENSIONBRIDGE_SUSPENSIONBRIDGE_BEARINGTOP, density=0, section=GENERAL
  *beamgeneralsection, elset=ASSEMBLYSUSPENSIONBRIDGE_SUSPENSIONBRIDGE_BEARINGLOW, density=0, section=GENERAL
  *shellsection, elset=ASSEMBLYSUSPENSIONBRIDGE_SUSPENSIONBRIDGE_BRIDGEDECK_SHELL, material=SOFT, offset=SNEG
  *spring, elset=ASSEMBLYSUSPENSIONBRIDGE_SUSPENSIONBRIDGE_SADLESPRING_X
  *spring, elset=ASSEMBLYSUSPENSIONBRIDGE_SUSPENSIONBRIDGE_SADLESPRING_Y
  *spring, elset=ASSEMBLYSUSPENSIONBRIDGE_SUSPENSIONBRIDGE_SADLESPRING_Z
  *spring, elset=ASSEMBLYSUSPENSIONBRIDGE_SUSPENSIONBRIDGE_BEARINGSPRING1_SOUTH_X
  *spring, elset=ASSEMBLYSUSPENSIONBRIDGE_SUSPENSIONBRIDGE_BEARINGSPRING1_SOUTH_Y
  *spring, elset=ASSEMBLYSUSPENSIONBRIDGE_SUSPENSIONBRIDGE_BEARINGSPRING1_SOUTH_Z
  *spring, elset=ASSEMBLYSUSPENSIONBRIDGE_SUSPENSIONBRIDGE_BEARINGSPRING1_SOUTH_RX
  *spring, elset=ASSEMBLYSUSPENSIONBRIDGE_SUSPENSIONBRIDGE_BEARINGSPRING1_SOUTH_RY
  *spring, elset=ASSEMBLYSUSPENSIONBRIDGE_SUSPENSIONBRIDGE_BEARINGSPRING1_SOUTH_RZ
  *spring, elset=ASSEMBLYSUSPENSIONBRIDGE_SUSPENSIONBRIDGE_BEARINGSPRING1_NORTH_X
  *spring, elset=ASSEMBLYSUSPENSIONBRIDGE_SUSPENSIONBRIDGE_BEARINGSPRING1_NORTH_Y
  *spring, elset=ASSEMBLYSUSPENSIONBRIDGE_SUSPENSIONBRIDGE_BEARINGSPRING1_NORTH_Z
  *spring, elset=ASSEMBLYSUSPENSIONBRIDGE_SUSPENSIONBRIDGE_BEARINGSPRING1_NORTH_RX
  *spring, elset=ASSEMBLYSUSPENSIONBRIDGE_SUSPENSIONBRIDGE_BEARINGSPRING1_NORTH_RY
  *spring, elset=ASSEMBLYSUSPENSIONBRIDGE_SUSPENSIONBRIDGE_BEARINGSPRING1_NORTH_RZ
  *boundary, op=NEW
  *boundary, op=NEW
  *boundary, op=NEW
  *boundary, op=NEW
  *mpc
  *mpc
  *mpc
  *mpc
  *mpc
  *mpc
  *mpc
  *mpc
  *release
  *release
  *release
  *release
  *output, field, frequency=100
  *output, field, frequency=100
  *output, field, frequency=100
  *output, field, frequency=100
  *output, field, frequency=100
  *output, field, frequency=100
  *output, field, frequency=100
  *output, field, frequency=100
  *output, field
  *output, field
  *elementoutput
  *elementoutput
  *elementoutput
  *elementoutput
  *elementoutput
  *output, field, frequency=100
  *output, field, frequency=100
  *output, field, frequency=100
  *output, field, frequency=100
  *output, field, frequency=100
  *output, field, frequency=100
  *output, field, frequency=100
  *output, field, frequency=100
  *output, field
  *output, field
  *elementoutput
  *elementoutput
  *elementoutput
  *elementoutput
  *elementoutput
  *output, field, frequency=100
  *output, field, frequency=100
  *output, field, frequency=100
  *output, field, frequency=100
  *output, field, frequency=100
  *output, field, frequency=100
  *output, field, frequency=100
  *output, field, frequency=100
  *output, field
  *output, field
  *elementoutput
  *elementoutput
  *elementoutput
  *elementoutput
  *elementoutput
  *Step, nlgeom=YES, name=STEP1
  *output, field, frequency=100
  *output, field, frequency=100
  *Step, nlgeom=YES, name=STEP2
  *output, field, frequency=100
  *output, field, frequency=100
  *Step, nlgeom=YES, name=STEP3
  *output, field, frequency=100
  *output, field, frequency=100
  *Step, nlgeom=YES, name=STEP4
  *output, field, frequency=100
  *output, field, frequency=100
  *Step, name=STEP_MODAL
  *frequency, normalization=DISPLACEMENT, sim=NO
  *output, field
  *output, field
  *Step, nlgeom=YES, name=STEP1
  *Step, nlgeom=YES, name=STEP2
  *Step, nlgeom=YES, name=STEP3
  *Step, nlgeom=YES, name=STEP4
  *Step, name=STEP_MODAL
  *Step, nlgeom=YES, name=STEP1
  *static
  *modelchange, remove
  *modelchange, remove
  *modelchange, remove
  *modelchange, remove
  *modelchange, remove
  *modelchange, remove
  *dload, op=NEW

 ***NOTE: ALL ELEMENTS THAT HAVE MASS ARE COLLECTED IN ELEMENT SET 
          _Whole_Model_Gravity_Elset FOR APPLICATION OF GRAVITY LOAD.
  *boundary, op=NEW
  *output, field, frequency=100
  *nodeoutput
  *output, field, frequency=100
  *elementoutput
  *endstep

 ***WARNING: OUTPUT REQUEST SF IS NOT AVAILABLE FOR ELEMENT TYPE SPRING2

 ***WARNING: OUTPUT REQUEST SF IS NOT AVAILABLE FOR ELEMENT TYPE SPRING2

 ***WARNING: OUTPUT REQUEST SF IS NOT AVAILABLE FOR ELEMENT TYPE SPRING2

 ***WARNING: OUTPUT REQUEST SF IS NOT AVAILABLE FOR ELEMENT TYPE SPRING2

 ***WARNING: OUTPUT REQUEST SF IS NOT AVAILABLE FOR ELEMENT TYPE SPRING2

 ***WARNING: OUTPUT REQUEST SF IS NOT AVAILABLE FOR ELEMENT TYPE SPRING2
  *Step, nlgeom=YES, name=STEP2
  *static
  *modelchange, add
  *modelchange, add
  *modelchange, add
  *modelchange, add
  *dload, op=NEW
  *boundary, op=NEW
  *boundary, op=NEW
  *output, field, frequency=100
  *nodeoutput
  *output, field, frequency=100
  *elementoutput
  *endstep

 ***WARNING: OUTPUT REQUEST SF IS NOT AVAILABLE FOR ELEMENT TYPE SPRING2

 ***WARNING: OUTPUT REQUEST SF IS NOT AVAILABLE FOR ELEMENT TYPE SPRING2

 ***WARNING: OUTPUT REQUEST SF IS NOT AVAILABLE FOR ELEMENT TYPE SPRING2

 ***WARNING: OUTPUT REQUEST SF IS NOT AVAILABLE FOR ELEMENT TYPE SPRING2

 ***WARNING: OUTPUT REQUEST SF IS NOT AVAILABLE FOR ELEMENT TYPE SPRING2

 ***WARNING: OUTPUT REQUEST SF IS NOT AVAILABLE FOR ELEMENT TYPE SPRING2

 ***WARNING: OUTPUT REQUEST S IS NOT AVAILABLE FOR ELEMENT TYPE B31 UNLESS 
             *SECTION POINTS IS SPECIFIED AS PART OF THE *BEAM GENERAL SECTION 
             DEFINITION

 ***WARNING: OUTPUT REQUEST S IS NOT AVAILABLE FOR ELEMENT TYPE B31 UNLESS 
             *SECTION POINTS IS SPECIFIED AS PART OF THE *BEAM GENERAL SECTION 
             DEFINITION

 ***WARNING: OUTPUT REQUEST S IS NOT AVAILABLE FOR ELEMENT TYPE B33 UNLESS 
             *SECTION POINTS IS SPECIFIED AS PART OF THE *BEAM GENERAL SECTION 
             DEFINITION

 ***WARNING: OUTPUT REQUEST S IS NOT AVAILABLE FOR ELEMENT TYPE B31 UNLESS 
             *SECTION POINTS IS SPECIFIED AS PART OF THE *BEAM GENERAL SECTION 
             DEFINITION
  *Step, nlgeom=YES, name=STEP3
  *static
  *modelchange, add
  *modelchange, add
  *modelchange, remove
  *modelchange, remove
  *dload, op=NEW
  *output, field, frequency=100
  *nodeoutput
  *output, field, frequency=100
  *elementoutput
  *controls, reset
  *endstep

 ***WARNING: OUTPUT REQUEST SF IS NOT AVAILABLE FOR ELEMENT TYPE SPRING2

 ***WARNING: OUTPUT REQUEST SF IS NOT AVAILABLE FOR ELEMENT TYPE SPRING2

 ***WARNING: OUTPUT REQUEST SF IS NOT AVAILABLE FOR ELEMENT TYPE SPRING2

 ***WARNING: OUTPUT REQUEST SF IS NOT AVAILABLE FOR ELEMENT TYPE SPRING2

 ***WARNING: OUTPUT REQUEST SF IS NOT AVAILABLE FOR ELEMENT TYPE SPRING2

 ***WARNING: OUTPUT REQUEST SF IS NOT AVAILABLE FOR ELEMENT TYPE SPRING2

 ***WARNING: OUTPUT REQUEST S IS NOT AVAILABLE FOR ELEMENT TYPE B31 UNLESS 
             *SECTION POINTS IS SPECIFIED AS PART OF THE *BEAM GENERAL SECTION 
             DEFINITION

 ***WARNING: OUTPUT REQUEST S IS NOT AVAILABLE FOR ELEMENT TYPE B31 UNLESS 
             *SECTION POINTS IS SPECIFIED AS PART OF THE *BEAM GENERAL SECTION 
             DEFINITION

 ***WARNING: OUTPUT REQUEST S IS NOT AVAILABLE FOR ELEMENT TYPE B33 UNLESS 
             *SECTION POINTS IS SPECIFIED AS PART OF THE *BEAM GENERAL SECTION 
             DEFINITION

 ***WARNING: OUTPUT REQUEST S IS NOT AVAILABLE FOR ELEMENT TYPE B31 UNLESS 
             *SECTION POINTS IS SPECIFIED AS PART OF THE *BEAM GENERAL SECTION 
             DEFINITION
  *Step, nlgeom=YES, name=STEP4
  *static
  *modelchange, add
  *modelchange, add
  *modelchange, add
  *modelchange, add
  *output, field, frequency=100
  *nodeoutput
  *output, field, frequency=100
  *elementoutput
  *endstep

 ***WARNING: OUTPUT REQUEST SF IS NOT AVAILABLE FOR ELEMENT TYPE SPRING2

 ***WARNING: OUTPUT REQUEST SF IS NOT AVAILABLE FOR ELEMENT TYPE SPRING2

 ***WARNING: OUTPUT REQUEST SF IS NOT AVAILABLE FOR ELEMENT TYPE SPRING2

 ***WARNING: OUTPUT REQUEST SF IS NOT AVAILABLE FOR ELEMENT TYPE SPRING2

 ***WARNING: OUTPUT REQUEST SF IS NOT AVAILABLE FOR ELEMENT TYPE SPRING2

 ***WARNING: OUTPUT REQUEST SF IS NOT AVAILABLE FOR ELEMENT TYPE SPRING2

 ***WARNING: OUTPUT REQUEST S IS NOT AVAILABLE FOR ELEMENT TYPE B31 UNLESS 
             *SECTION POINTS IS SPECIFIED AS PART OF THE *BEAM GENERAL SECTION 
             DEFINITION

 ***WARNING: OUTPUT REQUEST S IS NOT AVAILABLE FOR ELEMENT TYPE B31 UNLESS 
             *SECTION POINTS IS SPECIFIED AS PART OF THE *BEAM GENERAL SECTION 
             DEFINITION

 ***WARNING: OUTPUT REQUEST S IS NOT AVAILABLE FOR ELEMENT TYPE B33 UNLESS 
             *SECTION POINTS IS SPECIFIED AS PART OF THE *BEAM GENERAL SECTION 
             DEFINITION

 ***WARNING: OUTPUT REQUEST S IS NOT AVAILABLE FOR ELEMENT TYPE B31 UNLESS 
             *SECTION POINTS IS SPECIFIED AS PART OF THE *BEAM GENERAL SECTION 
             DEFINITION
  *Step, name=STEP_MODAL
  *frequency, normalization=DISPLACEMENT, sim=NO
  *frequency, normalization=DISPLACEMENT, sim=NO
  *output, field
  *nodeoutput
  *output, field
  *elementoutput
  *endstep

 ***WARNING: THE NLGEOM FLAG IS ACTIVATED BECAUSE IT WAS ACTIVE IN THE PREVIOUS 
             STEP. GEOMETRIC NONLINEARITY IN THE BASE STATE WILL BE CONSIDERED 
             IN THE CURRENT STEP.

 ***WARNING: OUTPUT REQUEST SF IS NOT AVAILABLE FOR ELEMENT TYPE SPRING2

 ***WARNING: OUTPUT REQUEST SF IS NOT AVAILABLE FOR ELEMENT TYPE SPRING2

 ***WARNING: OUTPUT REQUEST SF IS NOT AVAILABLE FOR ELEMENT TYPE SPRING2

 ***WARNING: OUTPUT REQUEST SF IS NOT AVAILABLE FOR ELEMENT TYPE SPRING2

 ***WARNING: OUTPUT REQUEST SF IS NOT AVAILABLE FOR ELEMENT TYPE SPRING2

 ***WARNING: OUTPUT REQUEST SF IS NOT AVAILABLE FOR ELEMENT TYPE SPRING2
  *Step, nlgeom=YES, name=STEP1
  *static
  *cload, op=NEW
  *cload, op=NEW
  *boundary, op=NEW
  *endstep
  *Step, nlgeom=YES, name=STEP2
  *static
  *cload, op=NEW
  *boundary, op=NEW
  *boundary, op=NEW
  *endstep
  *Step, nlgeom=YES, name=STEP3
  *static
  *endstep
  *Step, nlgeom=YES, name=STEP4
  *static
  *endstep
  *Step, name=STEP_MODAL
  *frequency, normalization=DISPLACEMENT, sim=NO
  *frequency, normalization=DISPLACEMENT, sim=NO
  *endstep

 ***WARNING: For 42 beam elements either the average curvature about the local 
             1-direction differs by more than 0.1 degrees per unit length as 
             compared to the default curvature or the approximate integrated 
             curvature for the entire beam differs by more than 5 degrees as 
             compared to the approximate integrated default curvature. This may 
             be due to a user-specified normal or due to the nodal averaging 
             routine used by Abaqus. This difference may cause unexpected 
             behavior of the beam and you may want to verify that the beam 
             normals are correct for your problem. The elements have been 
             identified in element set WarnBeamCurvature1.

 ***WARNING: For 2 beam elements either the average curvature about the beam 
             tangent differs by more than 0.1 degrees per unit length as 
             compared to the default curvature or the approximate integrated 
             curvature for the entire beam differs by more than 5 degrees as 
             compared to the approximate integrated default curvature. This may 
             be due to a user-specified normal or due to the nodal averaging 
             routine used by Abaqus. This difference may cause unexpected 
             behavior of the beam and you may want to verify that the beam 
             normals are correct for your problem. The elements have been 
             identified in element set WarnBeamTwist.



                            P R O B L E M   S I Z E


          NUMBER OF ELEMENTS IS                                  1581
          NUMBER OF NODES IS                                     1963
          NUMBER OF NODES DEFINED BY THE USER                    1135
          NUMBER OF INTERNAL NODES GENERATED BY THE PROGRAM       828
          TOTAL NUMBER OF VARIABLES IN THE MODEL                 8886
          (DEGREES OF FREEDOM PLUS MAX NO. OF ANY LAGRANGE MULTIPLIER
           VARIABLES. INCLUDE *PRINT,SOLVE=YES TO GET THE ACTUAL NUMBER.)



                              END OF USER INPUT PROCESSING



     JOB TIME SUMMARY
       USER TIME (SEC)      =  0.20000    
       SYSTEM TIME (SEC)    =  0.10000    
       TOTAL CPU TIME (SEC) =  0.30000    
       WALLCLOCK TIME (SEC) =          0
1

   Abaqus 3DEXPERIENCE R2019x                                  Date 03-Jun-2022   Time 10:26:47
   For use by NTNU NORGES TEKNISK NATURVITENSKAPELIGE UNIVERSITET under license from Dassault Systemes or its subsidiary.

                                                                                               STEP    1  INCREMENT    1
                                                                                          TIME COMPLETED IN THIS STEP   0.00    


                        S T E P       1     S T A T I C   A N A L Y S I S


                                                                                          

     AUTOMATIC TIME CONTROL WITH -
          A SUGGESTED INITIAL TIME INCREMENT OF                0.100    
          AND A TOTAL TIME PERIOD OF                            1.00    
          THE MINIMUM TIME INCREMENT ALLOWED IS                1.000E-06
          THE MAXIMUM TIME INCREMENT ALLOWED IS                 1.00    

     LINEAR EQUATION SOLVER TYPE         DIRECT SPARSE

          LARGE DISPLACEMENT THEORY WILL BE USED


  THE TOTAL MASS ACCOUNTS FOR ELEMENT REMOVALS OR REACTIVATIONS IN THIS STEP



                    TOTAL MASS OF MODEL

                      3.0387813E+07


                    LOCATION OF THE CENTER OF MASS OF THE MODEL

                      2.9023559E-13     -2.3091275E-15       84.88328    


                    MOMENTS OF INERTIA ABOUT THE ORIGIN
                           I(XX)               I(YY)               I(ZZ)

                      3.2891685E+11      1.1910659E+13      1.1592574E+13


                    PRODUCTS OF INERTIA ABOUT THE ORIGIN
                           I(XY)               I(XZ)               I(YZ)

                      4.1685998E-06      5.1498413E-05     -1.8682331E-06


                    MOMENTS OF INERTIA ABOUT THE CENTER OF MASS
                           I(XX)               I(YY)               I(ZZ)

                      1.0996744E+11      1.1691710E+13      1.1592574E+13


                    PRODUCTS OF INERTIA ABOUT THE CENTER OF MASS
                           I(XY)               I(XZ)               I(YZ)

                      4.1685998E-06      8.0013712E-04     -7.8244366E-06
  
                   M E M O R Y   E S T I M A T E
  
 PROCESS      FLOATING PT       MINIMUM MEMORY        MEMORY TO
              OPERATIONS           REQUIRED          MINIMIZE I/O
             PER ITERATION           (MB)               (MB)
  
     1          2.64E+05               19                 30
  
 NOTE:
      (1) SINCE ABAQUS DOES NOT PRE-ALLOCATE MEMORY AND ONLY ALLOCATES MEMORY AS NEEDED DURING THE ANALYSIS,
          THE MEMORY REQUIREMENT PRINTED HERE CAN ONLY BE VIEWED AS A GENERAL GUIDELINE BASED ON THE BEST
          KNOWLEDGE AVAILABLE AT THE BEGINNING OF A STEP BEFORE THE SOLUTION PROCESS HAS BEGUN.
      (2) THE ESTIMATE IS NORMALLY UPDATED AT THE BEGINNING OF EVERY STEP. IT IS THE MAXIMUM VALUE OF THE
          ESTIMATE FROM THE CURRENT STEP TO THE LAST STEP OF THE ANALYSIS, WITH UNSYMMETRIC SOLUTION TAKEN
          INTO ACCOUNT IF APPLICABLE. 
      (3) SINCE THE ESTIMATE IS BASED ON THE ACTIVE DEGREES OF FREEDOM IN THE FIRST ITERATION OF THE 
          CURRENT STEP, THE MEMORY ESTIMATE MIGHT BE SIGNIFICANTLY DIFFERENT THAN ACTUAL USAGE FOR 
          PROBLEMS WITH SUBSTANTIAL CHANGES IN ACTIVE DEGREES OF FREEDOM BETWEEN STEPS (OR EVEN WITHIN
          THE SAME STEP). EXAMPLES ARE: PROBLEMS WITH SIGNIFICANT CONTACT CHANGES, PROBLEMS WITH MODEL
          CHANGE, PROBLEMS WITH BOTH STATIC STEP AND STEADY STATE DYNAMIC PROCEDURES WHERE ACOUSTIC 
          ELEMENTS WILL ONLY BE ACTIVATED IN THE STEADY STATE DYNAMIC STEPS.
      (4) FOR MULTI-PROCESS EXECUTION, THE ESTIMATED VALUE OF FLOATING POINT OPERATIONS FOR EACH PROCESS
          IS BASED ON AN INITIAL SCHEDULING OF OPERATIONS AND MIGHT NOT REFLECT THE ACTUAL FLOATING 
          POINT OPERATIONS COMPLETED ON EACH PROCESS. OPERATIONS ARE DYNAMICALLY BALANCED DURING EXECUTION, 
          SO THE ACTUAL BALANCE OF OPERATIONS BETWEEN PROCESSES IS EXPECTED TO BE BETTER THAN THE ESTIMATE
          PRINTED HERE.
      (5) THE UPPER LIMIT OF MEMORY THAT CAN BE ALLOCATED BY ABAQUS WILL IN GENERAL DEPEND ON THE VALUE OF
          THE "MEMORY" PARAMETER AND THE AMOUNT OF PHYSICAL MEMORY AVAILABLE ON THE MACHINE. PLEASE SEE
          THE "ABAQUS ANALYSIS USER'S MANUAL" FOR MORE DETAILS. THE ACTUAL USAGE OF MEMORY AND OF DISK
          SPACE FOR SCRATCH DATA WILL DEPEND ON THIS UPPER LIMIT AS WELL AS THE MEMORY REQUIRED TO MINIMIZE
          I/O. IF THE MEMORY UPPER LIMIT IS GREATER THAN THE MEMORY REQUIRED TO MINIMIZE I/O, THEN THE ACTUAL
          MEMORY USAGE WILL BE CLOSE TO THE ESTIMATED "MEMORY TO MINIMIZE I/O" VALUE, AND THE SCRATCH DISK
          USAGE WILL BE CLOSE-TO-ZERO; OTHERWISE, THE ACTUAL MEMORY USED WILL BE CLOSE TO THE PREVIOUSLY
          MENTIONED MEMORY LIMIT, AND THE SCRATCH DISK USAGE WILL BE ROUGHLY PROPORTIONAL TO THE DIFFERENCE
          BETWEEN THE ESTIMATED "MEMORY TO MINIMIZE I/O" AND THE MEMORY UPPER LIMIT. HOWEVER ACCURATE
          ESTIMATE OF THE SCRATCH DISK SPACE IS NOT POSSIBLE.
      (6) USING "*RESTART, WRITE" CAN GENERATE A LARGE AMOUNT OF DATA WRITTEN IN THE WORK DIRECTORY.
1

   Abaqus 3DEXPERIENCE R2019x                                  Date 03-Jun-2022   Time 10:26:48
   For use by NTNU NORGES TEKNISK NATURVITENSKAPELIGE UNIVERSITET under license from Dassault Systemes or its subsidiary.

                                                                                               STEP    2  INCREMENT    1
                                                                                          TIME COMPLETED IN THIS STEP   0.00    


                        S T E P       2     S T A T I C   A N A L Y S I S


[...]
      11       1.2376        1.39163E-11    5.32632E-05   -1.48073E-09     125.38       -4.73652E-07
      12      4.59850E-11   -0.58262       -8.89466E-09     65.645        7.41158E-08    2.98746E-03
      13     -2.21611E-04   -1.29285E-08    0.42976        1.45772E-06   -1.89549E-02   -4.34086E-08
      14      3.62989E-06   -6.27413E-10    4.54314E-02    1.88641E-07    1.13852E-03   -4.76198E-08
      15     -4.14086E-11   -0.46615       -6.80326E-10     98.745       -1.03741E-07   -7.82102E-04
      16     -0.15255       -2.03718E-11    3.81615E-05   -3.87135E-09    -153.58        1.13137E-06
      17      3.42000E-09    1.30553E-05    2.18657E-11   -1.25778E-03   -3.41372E-08     1364.7    
      18      3.20075E-05   -3.98480E-09    9.65350E-02    5.97686E-07    2.45588E-02   -5.33868E-08
      19      1.46849E-10     1.0190        1.60452E-09    -140.41        1.72907E-07    1.89004E-02
      20     -1.62899E-10    0.87507        7.52701E-10    -110.72       -2.12134E-07   -1.95453E-02
      21      0.45203        1.76725E-11   -3.97425E-05   -4.98772E-10     314.89        1.02393E-06
      22      1.81420E-06    1.82887E-09    3.66205E-02   -1.81881E-07    2.18949E-03    1.50668E-07
      23      3.77840E-02    8.85837E-11   -1.07229E-05   -5.53339E-09     41.679        1.21451E-06
      24      0.94295       -2.41347E-11    3.71662E-04    1.47974E-09    -367.02       -1.17832E-06
      25     -5.87102E-04   -3.36877E-09     1.1473        4.51819E-07    0.19940        3.83037E-08
      26      1.58420E-08   -2.28997E-05    4.14127E-10    2.15339E-03   -3.77827E-06    -8.7969    
      27     -3.38550E-11   -9.58757E-02    1.42032E-09    0.11196        1.89503E-08    4.25890E-02
      28      7.84169E-09   -6.11403E-05    1.61228E-10    1.46066E-03   -1.83899E-06    -84.565    
      29      1.00701E-02   -1.28947E-10   -9.23698E-06    1.12827E-08     14.856       -1.62879E-07
      30     -2.77592E-09    5.76118E-05   -3.26124E-10   -4.78456E-03   -1.17744E-07    -71.793    
      31      6.58987E-05   -5.79327E-10    0.25722        8.05323E-08    3.72578E-03   -7.41809E-09
      32     -1.11400E-12    -1.0000       -1.50069E-10     146.13        1.57149E-08   -1.01521E-02
      33      1.35215E-10   -1.40081E-05   -4.67288E-11    1.86927E-03   -2.42961E-07     535.07    
      34      9.42836E-07    3.41617E-10   -2.68626E-02    1.31312E-07    1.97929E-03    3.52665E-07
      35     -2.73633E-10    1.67609E-05   -3.71909E-10   -2.64850E-03   -2.82091E-06     129.54    
      36     -2.14725E-10   -0.59207       -2.39495E-10     68.467        1.01565E-07    1.35417E-02
      37     -3.62705E-02    8.92202E-10    3.74945E-05   -2.11330E-08    -102.91       -2.67111E-06
      38     -2.70503E-03    5.56363E-12   -2.40880E-06    3.62811E-10    -11.734        1.38382E-06
      39      3.36108E-11   -3.43960E-06   -7.99875E-12   -2.40336E-06    1.16494E-08     125.38    
      40     -4.10824E-05    3.20853E-10    0.16242       -2.35149E-08   -8.02009E-04   -2.21625E-08
      41      9.03506E-11   -6.38539E-02   -2.76569E-10    -3.3161        1.93115E-08    1.81237E-02
      42      4.04257E-12   -2.48802E-05   -2.97098E-12    1.43291E-03    2.02285E-08    -7.5709    
      43      3.31987E-11    5.83984E-03    2.55690E-11    -4.4383        2.22397E-08    1.68137E-03
      44     -7.00433E-12    0.21416        2.53397E-10    -3.3562       -1.91712E-08    3.94752E-03
      45     -1.19818E-06    1.69109E-09   -1.77610E-02   -3.21033E-08    2.77394E-04   -2.72948E-09
      46     -3.55690E-02    1.05004E-11    2.23914E-05   -2.03019E-09    -84.024        2.95072E-08
      47      1.67126E-11    0.32630        1.28600E-09    -12.728       -8.70212E-09   -1.23223E-02
      48     -1.99703E-10    5.80356E-05    1.05542E-11   -1.43044E-03   -5.54818E-07     211.13    
      49     -2.33899E-03    1.19681E-10   -5.39945E-06   -3.40030E-09    -8.7829       -1.19291E-06
      50     -3.44391E-11    0.40771       -1.03824E-09    0.25410       -5.82350E-08   -5.07873E-02
      51     -7.28780E-10    2.38788E-05   -8.34351E-12    4.07147E-04   -6.63395E-07     262.62    
      52     -0.12051        3.61797E-10    1.29110E-06   -4.33431E-08    -93.852       -4.70160E-06
      53      5.05971E-07    1.49941E-09    6.39996E-03    4.21658E-07   -2.64464E-03    2.92092E-08
      54     -1.86596E-03    9.11145E-11    1.69667E-07   -1.28552E-08     5.7257       -1.88747E-06
      55     -1.05340E-06   -5.56793E-09    2.62367E-02   -1.37118E-07   -9.14381E-04   -1.52343E-08
      56     -4.73585E-10   -6.65997E-06    1.55879E-11   -1.02994E-03    7.39904E-07     13.033    
      57     -3.17338E-10    2.29749E-02    4.72501E-10     3.2712       -8.59883E-07    4.38097E-03
      58     -5.71565E-05   -1.10413E-09    0.12780        6.65510E-08    6.03099E-04   -1.33791E-08
      59      1.85422E-10   -1.64976E-05   -8.37569E-11    7.50201E-04   -1.76126E-07    -40.326    
      60      4.22971E-11   -0.11663       -7.74910E-11    -6.1094        4.23362E-08   -1.85430E-03
      61      6.67740E-06   -2.25358E-10    1.22561E-02   -2.99052E-08   -2.63704E-05    9.74943E-09
      62     -4.95567E-03    3.37905E-10    3.63068E-05   -7.09627E-08     83.639       -9.71733E-07
      63     -2.46999E-06   -1.82000E-10   -0.12547        5.01747E-08    2.49463E-02    9.00794E-07
      64     -5.51802E-02    1.21904E-09    4.66467E-06   -8.75404E-08    -66.977        9.33189E-07
      65     -1.02699E-09    2.06355E-05   -8.79340E-10    4.75858E-04   -3.91757E-07    -179.84    
      66      2.28955E-03   -3.21326E-09    5.57408E-06    2.15973E-07     4.9951        6.00871E-07
      67      1.00948E-09   -0.39501        1.78746E-10     2.2389       -2.95049E-08    0.33430    
      68      0.34000        3.29561E-10    2.19308E-05    4.97381E-09     19.756       -6.20959E-05
      69      8.30473E-08    2.26158E-04    3.66709E-11   -1.20301E-03    4.61093E-06     234.77    
      70     -2.59699E-11    0.29653        4.80187E-10     2.3145        2.32825E-07   -7.25141E-02
      71      9.62032E-05   -9.34118E-10   -0.11312        2.75887E-09    9.57652E-04    9.23080E-08
      72     -8.74006E-05    2.77507E-09    9.42172E-02   -1.23633E-07    7.38329E-04   -9.05929E-08
      73     -2.84095E-09   -8.55158E-05    1.88325E-11    1.50369E-03    1.64913E-07     133.46    
      74      4.74219E-11    0.46546        3.41803E-10    -7.9174        8.37089E-08    1.70018E-02
      75     -1.50891E-05   -4.33376E-09    3.99438E-02    5.43705E-09   -1.43883E-05   -2.09800E-09
      76      7.29702E-03    4.29045E-11   -7.10520E-06   -7.24581E-09     10.116        1.49873E-07
      77      5.26620E-10    5.61574E-05    3.18592E-13   -1.70906E-03   -4.95525E-08     104.68    
      78      8.37103E-02   -3.35074E-10   -7.41660E-06    4.32925E-08     6.8073        2.71300E-06
      79     -3.95129E-05    1.52028E-09   -4.02754E-02   -4.14244E-07    3.02572E-03    4.08541E-08
      80     -0.41682        4.45413E-10    8.25032E-07   -5.03612E-08     233.36       -1.10538E-05
      81      1.68222E-06    1.26759E-08    0.33592       -6.95948E-07   -1.62435E-03    1.63598E-07
      82     -1.30629E-08   -7.13454E-06   -8.51266E-10    5.01777E-04    3.17897E-06     68.388    
      83      4.47816E-10   -2.66101E-02    1.05385E-08     4.6885        1.49985E-07    3.24464E-04
      84      5.31026E-09    1.00446E-04   -8.91138E-12   -5.12177E-03   -1.42538E-06    -474.48    
      85     -1.12762E-12    0.95248       -3.44070E-09    -42.755       -9.36773E-08    8.21278E-02
      86     -0.12079        3.28480E-10    2.49512E-06   -2.77680E-08    -63.787       -4.51599E-06
      87      0.78091        3.28803E-11    2.32768E-05   -2.55878E-09    -10.577       -4.07578E-06
      88     -2.33412E-08   -2.00541E-04   -1.03912E-12    1.22660E-02    1.80250E-07    -171.10    
      89      2.79416E-10    0.36105       -3.49302E-10    -21.947        4.97615E-09   -0.21837    
      90     -2.25670E-04    1.97249E-08    1.36743E-02   -1.17024E-06    6.15377E-03    3.74607E-09
      91      1.21185E-10   -0.10981        1.96382E-09    -2.8805       -1.47898E-07    1.33917E-02
      92     -2.13281E-09    5.11986E-05    4.03882E-10   -2.64302E-03   -1.69668E-06     204.17    
      93      2.84727E-03    9.18499E-10    5.48722E-05   -2.71497E-07    -7.3840        8.04862E-06
      94     -1.16215E-05   -4.13137E-10    9.25274E-02    2.45951E-08   -1.36993E-03    6.07569E-09
      95      1.85628E-11   -0.37516        7.56125E-11     27.432        4.52074E-09    2.55371E-02
      96      1.16414E-09   -3.56408E-05   -3.43737E-11    2.27380E-03    1.13659E-06    -88.806    
      97     -5.18149E-05    4.68982E-10    1.09364E-02   -4.33297E-08   -7.29019E-04   -3.93042E-09
      98      1.61812E-05   -7.97972E-09   -2.07258E-02    8.02449E-07   -6.52069E-02    1.97110E-09
      99      4.77820E-11   -0.19628        1.11744E-09     17.900        3.90087E-08   -2.00360E-02
     100     -1.45654E-02    6.90896E-11   -1.55517E-05   -5.76134E-09     54.161       -2.44626E-06


                    E F F E C T I V E   M A S S

 MODE NO    X-COMPONENT    Y-COMPONENT    Z-COMPONENT    X-ROTATION     Y-ROTATION     Z-ROTATION 

       1      9.44050E-17    1.86151E+07    6.21781E-15    1.32143E+11    2.44104E-09     4.6423    
       2      2.47154E+05    1.62005E-14    2.17014E-04    1.69411E-11    1.81285E+12    3.28943E-07
       3      1.15774E-11    2.07160E-03    3.52784E-11     24.505        3.47552E-08    1.83501E+12
       4      2.48312E-03    2.73502E-14    3.06972E+06    1.32454E-09     137.68        2.26906E-05
       5      1.37815E-04    1.63840E-14    1.32421E+07    2.04687E-10     1869.6        7.06792E-08
       6      1.45570E-04    3.61051E-13    1.57402E+06    2.71262E-08     257.07        2.26132E-07
       7      1.25510E-13    2.99475E+05    2.85668E-12    2.24142E+10    8.00352E-08     1339.4    
       8      2.02973E+05    6.38284E-13    1.66974E-02    1.50239E-08    3.95987E+11    1.60387E-07
       9       11289.        7.50046E-13    1.43590E-04    4.91679E-08    3.11302E+09    2.13107E-06
      10      9.57402E-11    5.11179E-04    1.39152E-15     57.840        1.29154E-06    3.30442E+11
      11      3.20954E+07    4.05839E-15    5.94510E-02    4.59470E-11    3.29434E+11    4.70135E-06
      12      2.33195E-14    3.74333E+06    8.72461E-10    4.75215E+10    6.05770E-08     98.422    
      13      0.48352        1.64562E-09    1.81842E+06    2.09208E-05     3537.3        1.85518E-08
      14      3.47746E-05    1.03892E-12     5447.4        9.39176E-08     3.4210        5.98478E-09
      15      8.15141E-15    1.03299E+06    2.20032E-12    4.63534E+10    5.11628E-08     2.9079    
      16      2.59330E+05    4.62451E-15    1.62277E-02    1.67006E-10    2.62822E+11    1.42633E-05
      17      3.12612E-11    4.55538E-04    1.27785E-15     4.2282        3.11465E-09    4.97764E+12
      18      9.94597E-03    1.54154E-10     90472.        3.46808E-06     5855.4        2.76701E-08
      19      9.78172E-14    4.70959E+06    1.16779E-11    8.94241E+10    1.35613E-07     1620.4    
      20      1.11262E-13    3.21070E+06    2.37552E-12    5.14041E+10    1.88683E-07     1601.8    
      21      1.20298E+06    1.83872E-15    9.29881E-03    1.46461E-12    5.83779E+11    6.17241E-06
      22      5.22146E-06    5.30627E-12     2127.5        5.24802E-08     7.6052        3.60135E-08
      23       2298.9        1.26359E-14    1.85149E-04    4.93037E-11    2.79731E+09    2.37520E-06
      24      2.77596E+06    1.81855E-15    0.43126        6.83618E-12    4.20555E+11    4.33478E-06
      25      0.71327        2.34838E-11    2.72363E+06    4.22430E-07     82277.        3.03603E-09
      26      1.31741E-09    2.75274E-03    9.00266E-13     24.342        7.49361E-05    4.06222E+08
      27      2.37312E-15     19032.        4.17684E-12     25954.        7.43542E-10     3755.5    
      28      1.42792E-10    8.68037E-03    6.03619E-14     4.9543        7.85311E-06    1.66059E+10
      29       305.83        5.01471E-14    2.57324E-04    3.83927E-10    6.65639E+08    8.00113E-08
      30      4.84127E-11    2.08530E-02    6.68207E-13     143.82        8.71006E-08    3.23825E+10
      31      4.52164E-02    3.49453E-12    6.88916E+05    6.75276E-08     144.54        5.72962E-10
      32      8.58059E-18    6.91430E+06    1.55713E-13    1.47645E+11    1.70753E-09     712.61    
      33      1.68675E-13    1.81033E-03    2.01452E-14     32.236        5.44598E-07    2.64133E+12
      34      2.53475E-06    3.32769E-13     2057.6        4.91667E-08     11.171        3.54641E-07
      35      6.44577E-13    2.41842E-03    1.19073E-12     60.386        6.85044E-05    1.44454E+11
      36      1.55045E-13    1.17879E+06    1.92878E-13    1.57635E+10    3.46879E-08     616.65    
      37       14099.        8.53105E-12    1.50664E-02    4.78627E-09    1.13495E+11    7.64646E-05
      38       22.184        9.38461E-17    1.75914E-05    3.99082E-13    4.17441E+08    5.80574E-06
      39      3.57630E-15    3.74535E-05    2.02545E-16    1.82858E-05    4.29618E-10    4.97661E+10
      40      1.75937E-02    1.07314E-12    2.75003E+05    5.76407E-09     6.7051        5.12014E-09
      41      4.68194E-14     23385.        4.38702E-13    6.30694E+07    2.13892E-09     1883.9    
      42      1.38836E-16    5.25894E-03    7.49875E-17     17.443        3.47629E-09    4.86954E+08
      43      1.11478E-14     344.94        6.61261E-15    1.99244E+08    5.00269E-09     28.594    
      44      1.53503E-16    1.43497E+05    2.00903E-13    3.52440E+07    1.14996E-09     48.756    
      45      4.30379E-06    8.57320E-12     945.68        3.08965E-09    0.23068        2.23342E-11
      46       13411.        1.16879E-15    5.31479E-03    4.36915E-11    7.48397E+10    9.22948E-09
      47      2.61927E-15    9.98432E+05    1.55086E-11    1.51912E+09    7.10133E-10     1423.9    
      48      1.84080E-13    1.55463E-02    5.14149E-16     9.4444        1.42082E-06    2.05751E+11
      49       16.839        4.40875E-14    8.97345E-05    3.55873E-11    2.37430E+08    4.37999E-06
      50      2.09242E-15    2.93261E+05    1.90170E-12    1.13907E+05    5.98292E-09     4550.5    
      51      1.25582E-12    1.34821E-03    1.64601E-16    0.39196        1.04059E-06    1.63070E+11
      52       30129.        2.71587E-13    3.45861E-06    3.89781E-09    1.82756E+10    4.58639E-05
      53      4.40212E-07    3.86593E-12     70.431        3.05725E-07     12.027        1.46707E-09
      54       5.5352        1.31979E-14    4.57638E-08    2.62717E-10    5.21182E+07    5.66353E-06
      55      2.49633E-06    6.97432E-11     1548.6        4.22964E-08     1.8809        5.22107E-10
      56      4.54582E-13    8.99005E-05    4.92483E-16     2.1500        1.10960E-06    3.44259E+08
      57      2.03996E-13     1069.3        4.52252E-13    2.16764E+07    1.49780E-06     38.879    
      58      3.41749E-02    1.27532E-11    1.70865E+05    4.63324E-08     3.8050        1.87252E-09
      59      1.60964E-13    1.27423E-03    3.28433E-14     2.6349        1.45229E-07    7.61330E+09
      60      5.66953E-15     43108.        1.90295E-14    1.18283E+08    5.68000E-09     10.896    
      61      1.36524E-04    1.55502E-13     459.94        2.73834E-09    2.12926E-03    2.91039E-10
      62       175.84        8.17549E-13    9.43843E-03    3.60567E-08    5.00889E+10    6.76112E-06
      63      4.34779E-05    2.36061E-13    1.12196E+05    1.79411E-08     4435.0        5.78269E-06
      64       31810.        1.55250E-11    2.27322E-04    8.00600E-08    4.68655E+10    9.09785E-06
      65      3.72962E-12    1.50579E-03    2.73430E-12    0.80073        5.42710E-07    1.14366E+11
      66       16.373        3.22496E-11    9.70464E-05    1.45692E-07    7.79326E+07    1.12771E-06
      67      5.03034E-12    7.70245E+05    1.57716E-13    2.47443E+07    4.29725E-09    5.51670E+05
      68      1.58686E+06    1.49087E-12    6.60201E-03    3.39584E-10    5.35755E+09    5.29291E-02
      69      1.05983E-07    0.78598        2.06648E-14     22.240        3.26711E-04    8.46997E+11
      70      3.17068E-15    4.13373E+05    1.08400E-12    2.51836E+07    2.54841E-07     24720.    
      71      4.79589E-02    4.52162E-12     66303.        3.94415E-11     4.7523        4.41540E-08
      72      4.67268E-02    4.71070E-11     54300.        9.34992E-08     3.3345        5.02024E-08
      73      8.39325E-11    7.60494E-02    3.68825E-15     23.514        2.82821E-07    1.85238E+11
      74      1.64364E-14    1.58349E+06    8.53886E-13    4.58156E+08    5.12144E-08     2112.7    
      75      2.54775E-03    2.10165E-10     17854.        3.30793E-10    2.31658E-03    4.92539E-11
      76       166.04        5.74017E-15    1.57424E-04    1.63717E-10    3.19108E+08    7.00435E-08
      77      1.03815E-12    1.18054E-02    3.79958E-19     10.934        9.19175E-09    4.10220E+10
      78       11122.        1.78198E-13    8.73035E-05    2.97473E-09    7.35486E+07    1.16821E-05
      79      2.48712E-03    3.68184E-12     2584.0        2.73359E-07     14.584        2.65884E-09
      80      3.60794E+05    4.11996E-13    1.41354E-06    5.26696E-09    1.13085E+11    2.53741E-04
      81      5.78520E-06    3.28479E-10    2.30684E+05    9.90161E-07     5.3940        5.47151E-08
      82      3.51111E-10    1.04736E-04    1.49106E-12    0.51807        2.07939E-05    9.62328E+09
      83      4.05615E-13     1432.2        2.24635E-10    4.44610E+07    4.54998E-08    0.21294    
      84      7.97235E-11    2.85244E-02    2.24514E-16     74.164        5.74401E-06    6.36491E+11
      85      2.58632E-18    1.84530E+06    2.40795E-11    3.71818E+09    1.78493E-08     13719.    
      86      1.53874E+05    1.13795E-12    6.56584E-05    8.13196E-09    4.29110E+10    2.15087E-04
      87      7.09847E+06    1.25846E-14    6.30683E-03    7.62131E-11    1.30234E+09    1.93369E-04
      88      3.76745E-09    0.27810        7.46684E-18     1040.4        2.24673E-07    2.02451E+11
      89      2.73336E-13    4.56388E+05    4.27165E-13    1.68632E+09    8.66923E-11    1.66948E+05
      90      0.15758        1.20386E-09     578.57        4.23736E-06     117.17        4.34208E-11
      91      5.69723E-14     46775.        1.49613E-11    3.21874E+07    8.48565E-08     695.72    
      92      1.52629E-11    8.79526E-03    5.47320E-13     23.439        9.65894E-06    1.39864E+11
      93       25.407        2.64392E-12    9.43619E-03    2.31006E-07    1.70872E+08    2.03018E-04
      94      1.48855E-03    1.88118E-12     94359.        6.66712E-09     20.684        4.06849E-10
      95      1.24857E-15    5.09990E+05    2.07164E-14    2.72666E+09    7.40537E-11     2363.0    
      96      4.24480E-12    3.97869E-03    3.70082E-15     16.194        4.04624E-06    2.47020E+10
      97      8.33569E-03    6.82881E-13     371.35        5.82914E-09     1.6501        4.79634E-11
      98      2.26622E-03    5.51131E-10     3717.9        5.57334E-06     36802.        3.36277E-11
      99      1.54437E-14    2.60607E+05    8.44637E-12    2.16746E+09    1.02930E-08     2715.4    
     100       2366.2        5.32386E-14    2.69749E-03    3.70210E-10    3.27172E+10    6.67432E-05

 TOTAL        4.61010E+07    4.71140E+07    2.42488E+07    5.65509E+11    4.31229E+12    1.26061E+13


          THE ANALYSIS HAS BEEN COMPLETED



                              ANALYSIS COMPLETE
                              WITH    133 WARNING MESSAGES ON THE DAT FILE
                              AND       4 WARNING MESSAGES ON THE MSG FILE
                                        3 WARNINGS ARE FOR NEGATIVE EIGENVALUES



     JOB TIME SUMMARY
       USER TIME (SEC)      =   33.700    
       SYSTEM TIME (SEC)    =   8.5000    
       TOTAL CPU TIME (SEC) =   42.200    
       WALLCLOCK TIME (SEC) =         28
