**********
** Parametrized suspension bridge model
** Model input generated 2022-06-05T15:18:01
**********
**********
** Part of abaqtus tools package
**********
**********
** 2022 Oyvind Wiig Petersen, NTNU
**********
**
**********
** User parameter values:
** To come
**********
***********************************************************
** MATERIALS
***********************************************************
*MATERIAL, NAME=CONCRETE
*ELASTIC
3.500e+10, 0.200
*DENSITY
2.500e+03
**
**
*MATERIAL, NAME=SOFT
*ELASTIC
1.000e-06, 0.300
*DENSITY
1.000e-12
**
**
*MATERIAL, NAME=STEEL
*ELASTIC
2.100e+11, 0.300
*DENSITY
7.850e+03
**
**
*PART, NAME=SUSPENSIONBRIDGE
**
***********************************************************
** CABLE
***********************************************************
*NODE,NSET=CABLE_MAIN_EAST
10001,-902.50000,-20.00000,48.00000
10002,-896.83143,-19.63000,51.44200
10003,-891.16287,-19.26000,54.88400
10004,-885.49430,-18.89000,58.32600
10005,-879.82573,-18.52000,61.76800
10006,-874.15716,-18.15000,65.21000
10007,-868.48860,-17.78000,68.65200
10008,-862.82003,-17.41000,72.09400
10009,-857.15146,-17.04000,75.53600
10010,-851.48290,-16.67000,78.97800
10011,-845.81433,-16.30000,82.42000
10012,-840.14576,-15.93000,85.86200
10013,-834.47719,-15.56000,89.30400
10014,-828.80863,-15.19000,92.74600
10015,-823.14006,-14.82000,96.18800
10016,-817.47149,-14.45000,99.63000
10017,-811.80292,-14.08000,103.07200
10018,-806.13436,-13.71000,106.51400
10019,-800.46579,-13.34000,109.95600
10020,-794.79722,-12.97000,113.39800
** ... 185 like lines cut
**
**
*NODE,NSET=CABLE_MAIN_WEST
20001,-902.50000,20.00000,48.00000
20002,-896.83143,19.63000,51.44200
20003,-891.16287,19.26000,54.88400
20004,-885.49430,18.89000,58.32600
20005,-879.82573,18.52000,61.76800
20006,-874.15716,18.15000,65.21000
20007,-868.48860,17.78000,68.65200
20008,-862.82003,17.41000,72.09400
20009,-857.15146,17.04000,75.53600
20010,-851.48290,16.67000,78.97800
20011,-845.81433,16.30000,82.42000
20012,-840.14576,15.93000,85.86200
20013,-834.47719,15.56000,89.30400
20014,-828.80863,15.19000,92.74600
20015,-823.14006,14.82000,96.18800
20016,-817.47149,14.45000,99.63000
20017,-811.80292,14.08000,103.07200
20018,-806.13436,13.71000,106.51400
20019,-800.46579,13.34000,109.95600
20020,-794.79722,12.97000,113.39800
** ... 185 like lines cut
**
**
*ELEMENT, TYPE=B33, ELSET=CABLE_MAIN_EAST
10001, 10001, 10002
10002, 10002, 10003
10003, 10003, 10004
10004, 10004, 10005
10005, 10005, 10006
10006, 10006, 10007
10007, 10007, 10008
10008, 10008, 10009
10009, 10009, 10010
10010, 10010, 10011
10011, 10011, 10012
10012, 10012, 10013
10013, 10013, 10014
10014, 10014, 10015
10015, 10015, 10016
10016, 10016, 10017
10017, 10017, 10018
10018, 10018, 10019
10019, 10019, 10020
10020, 10020, 10021
** ... 184 like lines cut
**
**
*ELEMENT, TYPE=B33, ELSET=CABLE_MAIN_WEST
20001, 20001, 20002
20002, 20002, 20003
20003, 20003, 20004
20004, 20004, 20005
20005, 20005, 20006
20006, 20006, 20007
20007, 20007, 20008
20008, 20008, 20009
20009, 20009, 20010
20010, 20010, 20011
20011, 20011, 20012
20012, 20012, 20013
20013, 20013, 20014
20014, 20014, 20015
20015, 20015, 20016
20016, 20016, 20017
20017, 20017, 20018
20018, 20018, 20019
20019, 20019, 20020
20020, 20020, 20021
** ... 184 like lines cut
**
**
*ELEMENT, TYPE=B31, ELSET=CABLE_TEMPSUPPORT
510001, 20064, 10064
510002, 20072, 10072
510003, 20080, 10080
510004, 20088, 10088
510005, 20096, 10096
510006, 20104, 10104
510007, 20112, 10112
510008, 20120, 10120
510009, 20128, 10128
510010, 20136, 10136
510011, 20144, 10144
**
**
*NSET, NSET=CABLE_MAIN_ANCHORAGE
10001,10205,20001,20205
**
**
*NSET, NSET=CABLE_MAIN_TOP_SOUTH_EAST
10051
**
**
*NSET, NSET=CABLE_MAIN_TOP_SOUTH_WEST
20051
**
**
*NSET, NSET=CABLE_MAIN_TOP_NORTH_EAST
10155
**
**
*NSET, NSET=CABLE_MAIN_TOP_NORTH_WEST
20155
**
**
*NSET, NSET=CABLE_MAIN_TOP
CABLE_MAIN_TOP_SOUTH_EAST
CABLE_MAIN_TOP_SOUTH_WEST
CABLE_MAIN_TOP_NORTH_EAST
CABLE_MAIN_TOP_NORTH_WEST
**
**
*NSET, NSET=CABLE_MAIN_SPAN
10051,10052,10053,10054,10055,10056,10057,10058,10059,10060,10061,10062,10063,10064,10065,10066
10067,10068,10069,10070,10071,10072,10073,10074,10075,10076,10077,10078,10079,10080,10081,10082
10083,10084,10085,10086,10087,10088,10089,10090,10091,10092,10093,10094,10095,10096,10097,10098
10099,10100,10101,10102,10103,10104,10105,10106,10107,10108,10109,10110,10111,10112,10113,10114
10115,10116,10117,10118,10119,10120,10121,10122,10123,10124,10125,10126,10127,10128,10129,10130
10131,10132,10133,10134,10135,10136,10137,10138,10139,10140,10141,10142,10143,10144,10145,10146
10147,10148,10149,10150,10151,10152,10153,10154,10155,20051,20052,20053,20054,20055,20056,20057
20058,20059,20060,20061,20062,20063,20064,20065,20066,20067,20068,20069,20070,20071,20072,20073
20074,20075,20076,20077,20078,20079,20080,20081,20082,20083,20084,20085,20086,20087,20088,20089
20090,20091,20092,20093,20094,20095,20096,20097,20098,20099,20100,20101,20102,20103,20104,20105
20106,20107,20108,20109,20110,20111,20112,20113,20114,20115,20116,20117,20118,20119,20120,20121
20122,20123,20124,20125,20126,20127,20128,20129,20130,20131,20132,20133,20134,20135,20136,20137
20138,20139,20140,20141,20142,20143,20144,20145,20146,20147,20148,20149,20150,20151,20152,20153
20154,20155
**
**
*ELSET, ELSET=CABLE_MAIN
CABLE_MAIN_EAST
CABLE_MAIN_WEST
**
**
*ELSET, ELSET=CABLE_MAIN_SPAN
10051,10052,10053,10054,10055,10056,10057,10058,10059,10060,10061,10062,10063,10064,10065,10066
10067,10068,10069,10070,10071,10072,10073,10074,10075,10076,10077,10078,10079,10080,10081,10082
10083,10084,10085,10086,10087,10088,10089,10090,10091,10092,10093,10094,10095,10096,10097,10098
10099,10100,10101,10102,10103,10104,10105,10106,10107,10108,10109,10110,10111,10112,10113,10114
10115,10116,10117,10118,10119,10120,10121,10122,10123,10124,10125,10126,10127,10128,10129,10130
10131,10132,10133,10134,10135,10136,10137,10138,10139,10140,10141,10142,10143,10144,10145,10146
10147,10148,10149,10150,10151,10152,10153,10154,20051,20052,20053,20054,20055,20056,20057,20058
20059,20060,20061,20062,20063,20064,20065,20066,20067,20068,20069,20070,20071,20072,20073,20074
20075,20076,20077,20078,20079,20080,20081,20082,20083,20084,20085,20086,20087,20088,20089,20090
20091,20092,20093,20094,20095,20096,20097,20098,20099,20100,20101,20102,20103,20104,20105,20106
20107,20108,20109,20110,20111,20112,20113,20114,20115,20116,20117,20118,20119,20120,20121,20122
20123,20124,20125,20126,20127,20128,20129,20130,20131,20132,20133,20134,20135,20136,20137,20138
20139,20140,20141,20142,20143,20144,20145,20146,20147,20148,20149,20150,20151,20152,20153,20154
**
**
*BEAM GENERAL SECTION, ELSET=CABLE_MAIN, SECTION=GENERAL, DENSITY=7850.00
2.68090e-01, 4.57553e-05, 0.00000e+00, 4.57553e-05, 1.14388e-04
0.000, 1.000, 0.000
2.00000e+11, 8.00000e+10
*BEAM GENERAL SECTION, ELSET=CABLE_TEMPSUPPORT, SECTION=GENERAL, DENSITY=0.000
1.00000e-01, 1.00000e+00, 0.00000e+00, 1.00000e+00, 1.00000e+00
1.000, 0.000, 0.000
2.10000e+13, 8.10000e+12
***********************************************************
** TOWER
***********************************************************
*ELSET, ELSET=TOWER_SOUTH_CS_001
100001,110001
**
**
*ELSET, ELSET=TOWER_SOUTH_CS_002
100002,110002
**
**
*ELSET, ELSET=TOWER_SOUTH_CS_003
100003,110003
**
**
*ELSET, ELSET=TOWER_SOUTH_CS_004
100004,110004
**
**
*ELSET, ELSET=TOWER_SOUTH_CS_005
100005,110005
**
**
*ELSET, ELSET=TOWER_SOUTH_CS_006
100006,110006
**
**
*ELSET, ELSET=TOWER_SOUTH_CS_007
100007,110007
**
**
*ELSET, ELSET=TOWER_SOUTH_CS_008
100008,110008
**
**
*ELSET, ELSET=TOWER_SOUTH_CS_009
100009,110009
**
**
*ELSET, ELSET=TOWER_SOUTH_CS_010
100010,110010
**
**
*ELSET, ELSET=TOWER_SOUTH_CS_011
100011,110011
**
**
*ELSET, ELSET=TOWER_SOUTH_CS_012
100012,110012
**
**
*ELSET, ELSET=TOWER_SOUTH_CS_013
100013,110013
**
**
*ELSET, ELSET=TOWER_SOUTH_CS_014
100014,110014
**
**
*ELSET, ELSET=TOWER_SOUTH_CS_015
100015,110015
**
**
*ELSET, ELSET=TOWER_SOUTH_CS_016
100016,110016
**
**
*ELSET, ELSET=TOWER_SOUTH_CS_017
100017,110017
**
**
*ELSET, ELSET=TOWER_SOUTH_CS_018
100018,110018
**
**
*ELSET, ELSET=TOWER_SOUTH_CS_019
100019,110019
**
**
*ELSET, ELSET=TOWER_SOUTH_CS_020
100020,110020
**
**
*ELSET, ELSET=TOWER_SOUTH_CS_021
100021,110021
**
**
*ELSET, ELSET=TOWER_SOUTH_CS_022
100022,110022
**
**
*ELSET, ELSET=TOWER_SOUTH_CS_023
100023,110023
**
**
*ELSET, ELSET=TOWER_SOUTH_CS_024
100024,110024
**
**
*ELSET, ELSET=TOWER_SOUTH_CS_025
100025,110025
**
**
*ELSET, ELSET=TOWER_SOUTH_CS_026
100026,110026
**
**
*ELSET, ELSET=TOWER_SOUTH_CS_027
100027,110027
**
**
*ELSET, ELSET=TOWER_SOUTH_CS_028
100028,110028
**
**
*ELSET, ELSET=TOWER_SOUTH_CS_029
100029,110029
**
**
*ELSET, ELSET=TOWER_SOUTH_CS_030
100030,110030
**
**
*ELSET, ELSET=TOWER_SOUTH_CS_031
100031,110031
**
**
*ELSET, ELSET=TOWER_SOUTH_CS_032
100032,110032
**
**
*ELSET, ELSET=TOWER_SOUTH_CS_033
100033,110033
**
**
*ELSET, ELSET=TOWER_SOUTH_CS_034
100034,110034
**
**
*ELSET, ELSET=TOWER_SOUTH_CS_035
100035,110035
**
**
*ELSET, ELSET=TOWER_SOUTH_CS_036
100036,110036
**
**
*ELSET, ELSET=TOWER_SOUTH_CS_037
100037,110037
**
**
*ELSET, ELSET=TOWER_SOUTH_CS_038
100038,110038
**
**
*ELSET, ELSET=TOWER_SOUTH_CS_039
100039,110039
**
**
*ELSET, ELSET=TOWER_SOUTH_CS_040
100040,110040
**
**
*ELSET, ELSET=TOWER_SOUTH_CS_041
100041,110041
**
**
*ELSET, ELSET=TOWER_SOUTH_CS_042
100042,110042
**
**
*ELSET, ELSET=TOWER_SOUTH_CS_043
100043,110043
**
**
*ELSET, ELSET=TOWER_SOUTH_CS_044
100044,110044
**
**
*ELSET, ELSET=TOWER_NORTH_CS_001
200001,210001
**
**
*ELSET, ELSET=TOWER_NORTH_CS_002
200002,210002
**
**
*ELSET, ELSET=TOWER_NORTH_CS_003
200003,210003
**
**
*ELSET, ELSET=TOWER_NORTH_CS_004
200004,210004
**
**
*ELSET, ELSET=TOWER_NORTH_CS_005
200005,210005
**
**
*ELSET, ELSET=TOWER_NORTH_CS_006
200006,210006
**
**
*ELSET, ELSET=TOWER_NORTH_CS_007
200007,210007
**
**
*ELSET, ELSET=TOWER_NORTH_CS_008
200008,210008
**
**
*ELSET, ELSET=TOWER_NORTH_CS_009
200009,210009
**
**
*ELSET, ELSET=TOWER_NORTH_CS_010
200010,210010
**
**
*ELSET, ELSET=TOWER_NORTH_CS_011
200011,210011
**
**
*ELSET, ELSET=TOWER_NORTH_CS_012
200012,210012
**
**
*ELSET, ELSET=TOWER_NORTH_CS_013
200013,210013
**
**
*ELSET, ELSET=TOWER_NORTH_CS_014
200014,210014
**
**
*ELSET, ELSET=TOWER_NORTH_CS_015
200015,210015
**
**
*ELSET, ELSET=TOWER_NORTH_CS_016
200016,210016
**
**
*ELSET, ELSET=TOWER_NORTH_CS_017
200017,210017
**
**
*ELSET, ELSET=TOWER_NORTH_CS_018
200018,210018
**
**
*ELSET, ELSET=TOWER_NORTH_CS_019
200019,210019
**
**
*ELSET, ELSET=TOWER_NORTH_CS_020
200020,210020
**
**
*ELSET, ELSET=TOWER_NORTH_CS_021
200021,210021
**
**
*ELSET, ELSET=TOWER_NORTH_CS_022
200022,210022
**
**
*ELSET, ELSET=TOWER_NORTH_CS_023
200023,210023
**
**
*ELSET, ELSET=TOWER_NORTH_CS_024
200024,210024
**
**
*ELSET, ELSET=TOWER_NORTH_CS_025
200025,210025
**
**
*ELSET, ELSET=TOWER_NORTH_CS_026
200026,210026
**
**
*ELSET, ELSET=TOWER_NORTH_CS_027
200027,210027
**
**
*ELSET, ELSET=TOWER_NORTH_CS_028
200028,210028
**
**
*ELSET, ELSET=TOWER_NORTH_CS_029
200029,210029
**
**
*ELSET, ELSET=TOWER_NORTH_CS_030
200030,210030
**
**
*ELSET, ELSET=TOWER_NORTH_CS_031
200031,210031
**
**
*ELSET, ELSET=TOWER_NORTH_CS_032
200032,210032
**
**
*ELSET, ELSET=TOWER_NORTH_CS_033
200033,210033
**
**
*ELSET, ELSET=TOWER_NORTH_CS_034
200034,210034
**
**
*ELSET, ELSET=TOWER_NORTH_CS_035
200035,210035
**
**
*ELSET, ELSET=TOWER_NORTH_CS_036
200036,210036
**
**
*ELSET, ELSET=TOWER_NORTH_CS_037
200037,210037
**
**
*ELSET, ELSET=TOWER_NORTH_CS_038
200038,210038
**
**
*ELSET, ELSET=TOWER_NORTH_CS_039
200039,210039
**
**
*ELSET, ELSET=TOWER_NORTH_CS_040
200040,210040
**
**
*ELSET, ELSET=TOWER_NORTH_CS_041
200041,210041
**
**
*ELSET, ELSET=TOWER_NORTH_CS_042
200042,210042
**
**
*ELSET, ELSET=TOWER_NORTH_CS_043
200043,210043
**
**
*ELSET, ELSET=TOWER_NORTH_CS_044
200044,210044
**
**
*NODE,NSET=TOWER_LEG_SOUTH_EAST
100001,-617.50000,-20.00000,0.00000
100002,-617.50000,-19.57955,5.00000
100003,-617.50000,-19.15909,10.00000
100004,-617.50000,-18.73864,15.00000
100005,-617.50000,-18.31818,20.00000
100006,-617.50000,-17.89773,25.00000
100007,-617.50000,-17.47727,30.00000
100008,-617.50000,-17.05682,35.00000
100009,-617.50000,-16.63636,40.00000
100010,-617.50000,-16.21591,45.00000
100011,-617.50000,-15.79545,50.00000
100012,-617.50000,-15.37500,55.00000
100013,-617.50000,-14.95455,60.00000
100014,-617.50000,-14.53409,65.00000
100015,-617.50000,-14.11364,70.00000
100016,-617.50000,-13.69318,75.00000
100017,-617.50000,-13.27273,80.00000
100018,-617.50000,-12.85227,85.00000
100019,-617.50000,-12.43182,90.00000
100020,-617.50000,-12.01136,95.00000
** ... 25 like lines cut
**
**
*NODE,NSET=TOWER_LEG_SOUTH_WEST
110001,-617.50000,20.00000,0.00000
110002,-617.50000,19.57955,5.00000
110003,-617.50000,19.15909,10.00000
110004,-617.50000,18.73864,15.00000
110005,-617.50000,18.31818,20.00000
110006,-617.50000,17.89773,25.00000
110007,-617.50000,17.47727,30.00000
110008,-617.50000,17.05682,35.00000
110009,-617.50000,16.63636,40.00000
110010,-617.50000,16.21591,45.00000
110011,-617.50000,15.79545,50.00000
110012,-617.50000,15.37500,55.00000
110013,-617.50000,14.95455,60.00000
110014,-617.50000,14.53409,65.00000
110015,-617.50000,14.11364,70.00000
110016,-617.50000,13.69318,75.00000
110017,-617.50000,13.27273,80.00000
110018,-617.50000,12.85227,85.00000
110019,-617.50000,12.43182,90.00000
110020,-617.50000,12.01136,95.00000
** ... 25 like lines cut
**
**
*NODE,NSET=TOWER_LEG_NORTH_EAST
200001,617.50000,-20.00000,0.00000
200002,617.50000,-19.57955,5.00000
200003,617.50000,-19.15909,10.00000
200004,617.50000,-18.73864,15.00000
200005,617.50000,-18.31818,20.00000
200006,617.50000,-17.89773,25.00000
200007,617.50000,-17.47727,30.00000
200008,617.50000,-17.05682,35.00000
200009,617.50000,-16.63636,40.00000
200010,617.50000,-16.21591,45.00000
200011,617.50000,-15.79545,50.00000
200012,617.50000,-15.37500,55.00000
200013,617.50000,-14.95455,60.00000
200014,617.50000,-14.53409,65.00000
200015,617.50000,-14.11364,70.00000
200016,617.50000,-13.69318,75.00000
200017,617.50000,-13.27273,80.00000
200018,617.50000,-12.85227,85.00000
200019,617.50000,-12.43182,90.00000
200020,617.50000,-12.01136,95.00000
** ... 25 like lines cut
**
**
*NODE,NSET=TOWER_LEG_NORTH_WEST
210001,617.50000,20.00000,0.00000
210002,617.50000,19.57955,5.00000
210003,617.50000,19.15909,10.00000
210004,617.50000,18.73864,15.00000
210005,617.50000,18.31818,20.00000
210006,617.50000,17.89773,25.00000
210007,617.50000,17.47727,30.00000
210008,617.50000,17.05682,35.00000
210009,617.50000,16.63636,40.00000
210010,617.50000,16.21591,45.00000
210011,617.50000,15.79545,50.00000
210012,617.50000,15.37500,55.00000
210013,617.50000,14.95455,60.00000
210014,617.50000,14.53409,65.00000
210015,617.50000,14.11364,70.00000
210016,617.50000,13.69318,75.00000
210017,617.50000,13.27273,80.00000
210018,617.50000,12.85227,85.00000
210019,617.50000,12.43182,90.00000
210020,617.50000,12.01136,95.00000
** ... 25 like lines cut
**
**
*NODE,NSET=TOWER_CROSSBEAM_SOUTH_1
101001,-617.50000,-12.52597,60.00000
101002,-617.50000,-11.50000,60.00000
101003,-617.50000,0.00000,60.00000
101004,-617.50000,11.50000,60.00000
101005,-617.50000,12.52597,60.00000
**
**
*NODE,NSET=TOWER_CROSSBEAM_SOUTH_2
101101,-617.50000,-0.25000,219.00000
101102,-617.50000,-0.12500,219.00000
101103,-617.50000,0.00000,219.00000
101104,-617.50000,0.12500,219.00000
101105,-617.50000,0.25000,219.00000
**
**
*NODE,NSET=TOWER_CROSSBEAM_NORTH_1
201001,617.50000,-12.52597,60.00000
201002,617.50000,-11.50000,60.00000
201003,617.50000,0.00000,60.00000
201004,617.50000,11.50000,60.00000
201005,617.50000,12.52597,60.00000
**
**
*NODE,NSET=TOWER_CROSSBEAM_NORTH_2
201101,617.50000,-0.25000,219.00000
201102,617.50000,-0.12500,219.00000
201103,617.50000,0.00000,219.00000
201104,617.50000,0.12500,219.00000
201105,617.50000,0.25000,219.00000
**
**
*ELEMENT, TYPE=B31, ELSET=TOWER_LEG_SOUTH_EAST
100001, 100001, 100002
100002, 100002, 100003
100003, 100003, 100004
100004, 100004, 100005
100005, 100005, 100006
100006, 100006, 100007
100007, 100007, 100008
100008, 100008, 100009
100009, 100009, 100010
100010, 100010, 100011
100011, 100011, 100012
100012, 100012, 100013
100013, 100013, 100014
100014, 100014, 100015
100015, 100015, 100016
100016, 100016, 100017
100017, 100017, 100018
100018, 100018, 100019
100019, 100019, 100020
100020, 100020, 100021
** ... 24 like lines cut
**
**
*ELEMENT, TYPE=B31, ELSET=TOWER_LEG_SOUTH_WEST
110001, 110001, 110002
110002, 110002, 110003
110003, 110003, 110004
110004, 110004, 110005
110005, 110005, 110006
110006, 110006, 110007
110007, 110007, 110008
110008, 110008, 110009
110009, 110009, 110010
110010, 110010, 110011
110011, 110011, 110012
110012, 110012, 110013
110013, 110013, 110014
110014, 110014, 110015
110015, 110015, 110016
110016, 110016, 110017
110017, 110017, 110018
110018, 110018, 110019
110019, 110019, 110020
110020, 110020, 110021
** ... 24 like lines cut
**
**
*ELEMENT, TYPE=B31, ELSET=TOWER_LEG_NORTH_EAST
200001, 200001, 200002
200002, 200002, 200003
200003, 200003, 200004
200004, 200004, 200005
200005, 200005, 200006
200006, 200006, 200007
200007, 200007, 200008
200008, 200008, 200009
200009, 200009, 200010
200010, 200010, 200011
200011, 200011, 200012
200012, 200012, 200013
200013, 200013, 200014
200014, 200014, 200015
200015, 200015, 200016
200016, 200016, 200017
200017, 200017, 200018
200018, 200018, 200019
200019, 200019, 200020
200020, 200020, 200021
** ... 24 like lines cut
**
**
*ELEMENT, TYPE=B31, ELSET=TOWER_LEG_NORTH_WEST
210001, 210001, 210002
210002, 210002, 210003
210003, 210003, 210004
210004, 210004, 210005
210005, 210005, 210006
210006, 210006, 210007
210007, 210007, 210008
210008, 210008, 210009
210009, 210009, 210010
210010, 210010, 210011
210011, 210011, 210012
210012, 210012, 210013
210013, 210013, 210014
210014, 210014, 210015
210015, 210015, 210016
210016, 210016, 210017
210017, 210017, 210018
210018, 210018, 210019
210019, 210019, 210020
210020, 210020, 210021
** ... 24 like lines cut
**
**
*ELEMENT, TYPE=B31, ELSET=TOWER_CROSSBEAM_SOUTH _1
101001, 101001, 101002
101002, 101002, 101003
101003, 101003, 101004
101004, 101004, 101005
**
**
*ELEMENT, TYPE=B31, ELSET=TOWER_CROSSBEAM_SOUTH _2
101101, 101101, 101102
101102, 101102, 101103
101103, 101103, 101104
101104, 101104, 101105
**
**
*ELEMENT, TYPE=B31, ELSET=TOWER_CROSSBEAM_NORTH _1
201001, 201001, 201002
201002, 201002, 201003
201003, 201003, 201004
201004, 201004, 201005
**
**
*ELEMENT, TYPE=B31, ELSET=TOWER_CROSSBEAM_NORTH _2
201101, 201101, 201102
201102, 201102, 201103
201103, 201103, 201104
201104, 201104, 201105
**
**
*NSET, NSET=TOWER_LEG
TOWER_LEG_SOUTH_EAST
TOWER_LEG_SOUTH_WEST
TOWER_LEG_NORTH_EAST
TOWER_LEG_NORTH_WEST
**
**
*NSET, NSET=TOWER_BASE
100001,110001,200001,210001
**
**
*NSET, NSET=TOWER_TOP_SOUTH_EAST
100045
**
**
*NSET, NSET=TOWER_TOP_SOUTH_WEST
110045
**
**
*NSET, NSET=TOWER_TOP_NORTH_EAST
200045
**
**
*NSET, NSET=TOWER_TOP_NORTH_WEST
210045
**
**
*NSET, NSET=TOWER_CROSSBEAM_SOUTH_1_START
101001
**
**
*NSET, NSET=TOWER_CROSSBEAM_SOUTH_1_END
101005
**
**
*NSET, NSET=TOWER_CROSSBEAM_SOUTH_2_START
101101
**
**
*NSET, NSET=TOWER_CROSSBEAM_SOUTH_2_END
101105
**
**
*NSET, NSET=TOWER_CROSSBEAM_NORTH_1_START
201001
**
**
*NSET, NSET=TOWER_CROSSBEAM_NORTH_1_END
201005
**
**
*NSET, NSET=TOWER_CROSSBEAM_NORTH_2_START
201101
**
**
*NSET, NSET=TOWER_CROSSBEAM_NORTH_2_END
201105
**
**
*ELSET, ELSET=TOWER_LEG
TOWER_LEG_SOUTH_EAST
TOWER_LEG_SOUTH_WEST
TOWER_LEG_NORTH_EAST
TOWER_LEG_NORTH_WEST
**
**
*ELSET, ELSET=TOWER_CROSSBEAM
TOWER_CROSSBEAM_SOUTH_1
TOWER_CROSSBEAM_SOUTH_2
TOWER_CROSSBEAM_NORTH_1
TOWER_CROSSBEAM_NORTH_2
**
**
*ELSET, ELSET=TOWER
TOWER_LEG
TOWER_CROSSBEAM
**
**
*BEAM SECTION, ELSET=TOWER_SOUTH_CS_001, MATERIAL=CONCRETE, SECTION=BOX
7.50000, 7.50000, 1.00000, 1.00000, 1.00000, 1.00000
0.000, 1.000, 0.000
**
*BEAM SECTION, ELSET=TOWER_NORTH_CS_001, MATERIAL=CONCRETE, SECTION=BOX
7.50000, 7.50000, 1.00000, 1.00000, 1.00000, 1.00000
0.000, 1.000, 0.000
**
*BEAM SECTION, ELSET=TOWER_SOUTH_CS_002, MATERIAL=CONCRETE, SECTION=BOX
7.18750, 7.18750, 1.00000, 1.00000, 1.00000, 1.00000
0.000, 1.000, 0.000
**
*BEAM SECTION, ELSET=TOWER_NORTH_CS_002, MATERIAL=CONCRETE, SECTION=BOX
7.18750, 7.18750, 1.00000, 1.00000, 1.00000, 1.00000
0.000, 1.000, 0.000
**
*BEAM SECTION, ELSET=TOWER_SOUTH_CS_003, MATERIAL=CONCRETE, SECTION=BOX
6.87500, 6.87500, 1.00000, 1.00000, 1.00000, 1.00000
0.000, 1.000, 0.000
**
*BEAM SECTION, ELSET=TOWER_NORTH_CS_003, MATERIAL=CONCRETE, SECTION=BOX
6.87500, 6.87500, 1.00000, 1.00000, 1.00000, 1.00000
0.000, 1.000, 0.000
**
*BEAM SECTION, ELSET=TOWER_SOUTH_CS_004, MATERIAL=CONCRETE, SECTION=BOX
6.56250, 6.56250, 1.00000, 1.00000, 1.00000, 1.00000
0.000, 1.000, 0.000
**
*BEAM SECTION, ELSET=TOWER_NORTH_CS_004, MATERIAL=CONCRETE, SECTION=BOX
6.56250, 6.56250, 1.00000, 1.00000, 1.00000, 1.00000
0.000, 1.000, 0.000
**
*BEAM SECTION, ELSET=TOWER_SOUTH_CS_005, MATERIAL=CONCRETE, SECTION=BOX
6.25000, 6.25000, 1.00000, 1.00000, 1.00000, 1.00000
0.000, 1.000, 0.000
**
*BEAM SECTION, ELSET=TOWER_NORTH_CS_005, MATERIAL=CONCRETE, SECTION=BOX
6.25000, 6.25000, 1.00000, 1.00000, 1.00000, 1.00000
0.000, 1.000, 0.000
**
*BEAM SECTION, ELSET=TOWER_SOUTH_CS_006, MATERIAL=CONCRETE, SECTION=BOX
5.93750, 5.93750, 1.00000, 1.00000, 1.00000, 1.00000
0.000, 1.000, 0.000
**
*BEAM SECTION, ELSET=TOWER_NORTH_CS_006, MATERIAL=CONCRETE, SECTION=BOX
5.93750, 5.93750, 1.00000, 1.00000, 1.00000, 1.00000
0.000, 1.000, 0.000
**
*BEAM SECTION, ELSET=TOWER_SOUTH_CS_007, MATERIAL=CONCRETE, SECTION=BOX
5.62500, 5.62500, 1.00000, 1.00000, 1.00000, 1.00000
0.000, 1.000, 0.000
**
*BEAM SECTION, ELSET=TOWER_NORTH_CS_007, MATERIAL=CONCRETE, SECTION=BOX
5.62500, 5.62500, 1.00000, 1.00000, 1.00000, 1.00000
0.000, 1.000, 0.000
**
*BEAM SECTION, ELSET=TOWER_SOUTH_CS_008, MATERIAL=CONCRETE, SECTION=BOX
5.31250, 5.31250, 1.00000, 1.00000, 1.00000, 1.00000
0.000, 1.000, 0.000
**
*BEAM SECTION, ELSET=TOWER_NORTH_CS_008, MATERIAL=CONCRETE, SECTION=BOX
5.31250, 5.31250, 1.00000, 1.00000, 1.00000, 1.00000
0.000, 1.000, 0.000
**
*BEAM SECTION, ELSET=TOWER_SOUTH_CS_009, MATERIAL=CONCRETE, SECTION=BOX
5.00000, 5.00000, 1.00000, 1.00000, 1.00000, 1.00000
0.000, 1.000, 0.000
**
*BEAM SECTION, ELSET=TOWER_NORTH_CS_009, MATERIAL=CONCRETE, SECTION=BOX
5.00000, 5.00000, 1.00000, 1.00000, 1.00000, 1.00000
0.000, 1.000, 0.000
**
*BEAM SECTION, ELSET=TOWER_SOUTH_CS_010, MATERIAL=CONCRETE, SECTION=BOX
5.00000, 4.96429, 0.98571, 0.98571, 0.98571, 0.98571
0.000, 1.000, 0.000
**
*BEAM SECTION, ELSET=TOWER_NORTH_CS_010, MATERIAL=CONCRETE, SECTION=BOX
5.00000, 4.96429, 0.98571, 0.98571, 0.98571, 0.98571
0.000, 1.000, 0.000
**
*BEAM SECTION, ELSET=TOWER_SOUTH_CS_011, MATERIAL=CONCRETE, SECTION=BOX
5.00000, 4.92857, 0.97143, 0.97143, 0.97143, 0.97143
0.000, 1.000, 0.000
**
*BEAM SECTION, ELSET=TOWER_NORTH_CS_011, MATERIAL=CONCRETE, SECTION=BOX
5.00000, 4.92857, 0.97143, 0.97143, 0.97143, 0.97143
0.000, 1.000, 0.000
**
*BEAM SECTION, ELSET=TOWER_SOUTH_CS_012, MATERIAL=CONCRETE, SECTION=BOX
5.00000, 4.89286, 0.95714, 0.95714, 0.95714, 0.95714
0.000, 1.000, 0.000
**
*BEAM SECTION, ELSET=TOWER_NORTH_CS_012, MATERIAL=CONCRETE, SECTION=BOX
5.00000, 4.89286, 0.95714, 0.95714, 0.95714, 0.95714
0.000, 1.000, 0.000
**
*BEAM SECTION, ELSET=TOWER_SOUTH_CS_013, MATERIAL=CONCRETE, SECTION=BOX
5.00000, 4.85714, 0.94286, 0.94286, 0.94286, 0.94286
0.000, 1.000, 0.000
**
*BEAM SECTION, ELSET=TOWER_NORTH_CS_013, MATERIAL=CONCRETE, SECTION=BOX
5.00000, 4.85714, 0.94286, 0.94286, 0.94286, 0.94286
0.000, 1.000, 0.000
**
*BEAM SECTION, ELSET=TOWER_SOUTH_CS_014, MATERIAL=CONCRETE, SECTION=BOX
5.00000, 4.82143, 0.92857, 0.92857, 0.92857, 0.92857
0.000, 1.000, 0.000
**
*BEAM SECTION, ELSET=TOWER_NORTH_CS_014, MATERIAL=CONCRETE, SECTION=BOX
5.00000, 4.82143, 0.92857, 0.92857, 0.92857, 0.92857
0.000, 1.000, 0.000
**
*BEAM SECTION, ELSET=TOWER_SOUTH_CS_015, MATERIAL=CONCRETE, SECTION=BOX
5.00000, 4.78571, 0.91429, 0.91429, 0.91429, 0.91429
0.000, 1.000, 0.000
**
*BEAM SECTION, ELSET=TOWER_NORTH_CS_015, MATERIAL=CONCRETE, SECTION=BOX
5.00000, 4.78571, 0.91429, 0.91429, 0.91429, 0.91429
0.000, 1.000, 0.000
**
*BEAM SECTION, ELSET=TOWER_SOUTH_CS_016, MATERIAL=CONCRETE, SECTION=BOX
5.00000, 4.75000, 0.90000, 0.90000, 0.90000, 0.90000
0.000, 1.000, 0.000
**
*BEAM SECTION, ELSET=TOWER_NORTH_CS_016, MATERIAL=CONCRETE, SECTION=BOX
5.00000, 4.75000, 0.90000, 0.90000, 0.90000, 0.90000
0.000, 1.000, 0.000
**
*BEAM SECTION, ELSET=TOWER_SOUTH_CS_017, MATERIAL=CONCRETE, SECTION=BOX
5.00000, 4.71429, 0.88571, 0.88571, 0.88571, 0.88571
0.000, 1.000, 0.000
**
*BEAM SECTION, ELSET=TOWER_NORTH_CS_017, MATERIAL=CONCRETE, SECTION=BOX
5.00000, 4.71429, 0.88571, 0.88571, 0.88571, 0.88571
0.000, 1.000, 0.000
**
*BEAM SECTION, ELSET=TOWER_SOUTH_CS_018, MATERIAL=CONCRETE, SECTION=BOX
5.00000, 4.67857, 0.87143, 0.87143, 0.87143, 0.87143
0.000, 1.000, 0.000
**
*BEAM SECTION, ELSET=TOWER_NORTH_CS_018, MATERIAL=CONCRETE, SECTION=BOX
5.00000, 4.67857, 0.87143, 0.87143, 0.87143, 0.87143
0.000, 1.000, 0.000
**
*BEAM SECTION, ELSET=TOWER_SOUTH_CS_019, MATERIAL=CONCRETE, SECTION=BOX
5.00000, 4.64286, 0.85714, 0.85714, 0.85714, 0.85714
0.000, 1.000, 0.000
**
*BEAM SECTION, ELSET=TOWER_NORTH_CS_019, MATERIAL=CONCRETE, SECTION=BOX
5.00000, 4.64286, 0.85714, 0.85714, 0.85714, 0.85714
0.000, 1.000, 0.000
**
*BEAM SECTION, ELSET=TOWER_SOUTH_CS_020, MATERIAL=CONCRETE, SECTION=BOX
5.00000, 4.60714, 0.84286, 0.84286, 0.84286, 0.84286
0.000, 1.000, 0.000
**
*BEAM SECTION, ELSET=TOWER_NORTH_CS_020, MATERIAL=CONCRETE, SECTION=BOX
5.00000, 4.60714, 0.84286, 0.84286, 0.84286, 0.84286
0.000, 1.000, 0.000
**
*BEAM SECTION, ELSET=TOWER_SOUTH_CS_021, MATERIAL=CONCRETE, SECTION=BOX
5.00000, 4.57143, 0.82857, 0.82857, 0.82857, 0.82857
0.000, 1.000, 0.000
**
*BEAM SECTION, ELSET=TOWER_NORTH_CS_021, MATERIAL=CONCRETE, SECTION=BOX
5.00000, 4.57143, 0.82857, 0.82857, 0.82857, 0.82857
0.000, 1.000, 0.000
**
*BEAM SECTION, ELSET=TOWER_SOUTH_CS_022, MATERIAL=CONCRETE, SECTION=BOX
5.00000, 4.53571, 0.81429, 0.81429, 0.81429, 0.81429
0.000, 1.000, 0.000
**
*BEAM SECTION, ELSET=TOWER_NORTH_CS_022, MATERIAL=CONCRETE, SECTION=BOX
5.00000, 4.53571, 0.81429, 0.81429, 0.81429, 0.81429
0.000, 1.000, 0.000
**
*BEAM SECTION, ELSET=TOWER_SOUTH_CS_023, MATERIAL=CONCRETE, SECTION=BOX
5.00000, 4.50000, 0.80000, 0.80000, 0.80000, 0.80000
0.000, 1.000, 0.000
**
*BEAM SECTION, ELSET=TOWER_NORTH_CS_023, MATERIAL=CONCRETE, SECTION=BOX
5.00000, 4.50000, 0.80000, 0.80000, 0.80000, 0.80000
0.000, 1.000, 0.000
**
*BEAM SECTION, ELSET=TOWER_SOUTH_CS_024, MATERIAL=CONCRETE, SECTION=BOX
5.00000, 4.46429, 0.78571, 0.78571, 0.78571, 0.78571
0.000, 1.000, 0.000
**
*BEAM SECTION, ELSET=TOWER_NORTH_CS_024, MATERIAL=CONCRETE, SECTION=BOX
5.00000, 4.46429, 0.78571, 0.78571, 0.78571, 0.78571
0.000, 1.000, 0.000
**
*BEAM SECTION, ELSET=TOWER_SOUTH_CS_025, MATERIAL=CONCRETE, SECTION=BOX
5.00000, 4.42857, 0.77143, 0.77143, 0.77143, 0.77143
0.000, 1.000, 0.000
**
*BEAM SECTION, ELSET=TOWER_NORTH_CS_025, MATERIAL=CONCRETE, SECTION=BOX
5.00000, 4.42857, 0.77143, 0.77143, 0.77143, 0.77143
0.000, 1.000, 0.000
**
*BEAM SECTION, ELSET=TOWER_SOUTH_CS_026, MATERIAL=CONCRETE, SECTION=BOX
5.00000, 4.39286, 0.75714, 0.75714, 0.75714, 0.75714
0.000, 1.000, 0.000
**
*BEAM SECTION, ELSET=TOWER_NORTH_CS_026, MATERIAL=CONCRETE, SECTION=BOX
5.00000, 4.39286, 0.75714, 0.75714, 0.75714, 0.75714
0.000, 1.000, 0.000
**
*BEAM SECTION, ELSET=TOWER_SOUTH_CS_027, MATERIAL=CONCRETE, SECTION=BOX
5.00000, 4.35714, 0.74286, 0.74286, 0.74286, 0.74286
0.000, 1.000, 0.000
**
*BEAM SECTION, ELSET=TOWER_NORTH_CS_027, MATERIAL=CONCRETE, SECTION=BOX
5.00000, 4.35714, 0.74286, 0.74286, 0.74286, 0.74286
0.000, 1.000, 0.000
**
*BEAM SECTION, ELSET=TOWER_SOUTH_CS_028, MATERIAL=CONCRETE, SECTION=BOX
5.00000, 4.32143, 0.72857, 0.72857, 0.72857, 0.72857
0.000, 1.000, 0.000
**
*BEAM SECTION, ELSET=TOWER_NORTH_CS_028, MATERIAL=CONCRETE, SECTION=BOX
5.00000, 4.32143, 0.72857, 0.72857, 0.72857, 0.72857
0.000, 1.000, 0.000
**
*BEAM SECTION, ELSET=TOWER_SOUTH_CS_029, MATERIAL=CONCRETE, SECTION=BOX
5.00000, 4.28571, 0.71429, 0.71429, 0.71429, 0.71429
0.000, 1.000, 0.000
**
*BEAM SECTION, ELSET=TOWER_NORTH_CS_029, MATERIAL=CONCRETE, SECTION=BOX
5.00000, 4.28571, 0.71429, 0.71429, 0.71429, 0.71429
0.000, 1.000, 0.000
**
*BEAM SECTION, ELSET=TOWER_SOUTH_CS_030, MATERIAL=CONCRETE, SECTION=BOX
5.00000, 4.25000, 0.70000, 0.70000, 0.70000, 0.70000
0.000, 1.000, 0.000
**
*BEAM SECTION, ELSET=TOWER_NORTH_CS_030, MATERIAL=CONCRETE, SECTION=BOX
5.00000, 4.25000, 0.70000, 0.70000, 0.70000, 0.70000
0.000, 1.000, 0.000
**
*BEAM SECTION, ELSET=TOWER_SOUTH_CS_031, MATERIAL=CONCRETE, SECTION=BOX
5.00000, 4.21429, 0.68571, 0.68571, 0.68571, 0.68571
0.000, 1.000, 0.000
**
*BEAM SECTION, ELSET=TOWER_NORTH_CS_031, MATERIAL=CONCRETE, SECTION=BOX
5.00000, 4.21429, 0.68571, 0.68571, 0.68571, 0.68571
0.000, 1.000, 0.000
**
*BEAM SECTION, ELSET=TOWER_SOUTH_CS_032, MATERIAL=CONCRETE, SECTION=BOX
5.00000, 4.17857, 0.67143, 0.67143, 0.67143, 0.67143
0.000, 1.000, 0.000
**
*BEAM SECTION, ELSET=TOWER_NORTH_CS_032, MATERIAL=CONCRETE, SECTION=BOX
5.00000, 4.17857, 0.67143, 0.67143, 0.67143, 0.67143
0.000, 1.000, 0.000
**
*BEAM SECTION, ELSET=TOWER_SOUTH_CS_033, MATERIAL=CONCRETE, SECTION=BOX
5.00000, 4.14286, 0.65714, 0.65714, 0.65714, 0.65714
0.000, 1.000, 0.000
**
*BEAM SECTION, ELSET=TOWER_NORTH_CS_033, MATERIAL=CONCRETE, SECTION=BOX
5.00000, 4.14286, 0.65714, 0.65714, 0.65714, 0.65714
0.000, 1.000, 0.000
**
*BEAM SECTION, ELSET=TOWER_SOUTH_CS_034, MATERIAL=CONCRETE, SECTION=BOX
5.00000, 4.10714, 0.64286, 0.64286, 0.64286, 0.64286
0.000, 1.000, 0.000
**
*BEAM SECTION, ELSET=TOWER_NORTH_CS_034, MATERIAL=CONCRETE, SECTION=BOX
5.00000, 4.10714, 0.64286, 0.64286, 0.64286, 0.64286
0.000, 1.000, 0.000
**
*BEAM SECTION, ELSET=TOWER_SOUTH_CS_035, MATERIAL=CONCRETE, SECTION=BOX
5.00000, 4.07143, 0.62857, 0.62857, 0.62857, 0.62857
0.000, 1.000, 0.000
**
*BEAM SECTION, ELSET=TOWER_NORTH_CS_035, MATERIAL=CONCRETE, SECTION=BOX
5.00000, 4.07143, 0.62857, 0.62857, 0.62857, 0.62857
0.000, 1.000, 0.000
**
*BEAM SECTION, ELSET=TOWER_SOUTH_CS_036, MATERIAL=CONCRETE, SECTION=BOX
5.00000, 4.03571, 0.61429, 0.61429, 0.61429, 0.61429
0.000, 1.000, 0.000
**
*BEAM SECTION, ELSET=TOWER_NORTH_CS_036, MATERIAL=CONCRETE, SECTION=BOX
5.00000, 4.03571, 0.61429, 0.61429, 0.61429, 0.61429
0.000, 1.000, 0.000
**
*BEAM SECTION, ELSET=TOWER_SOUTH_CS_037, MATERIAL=CONCRETE, SECTION=BOX
5.00000, 4.00000, 0.60000, 0.60000, 0.60000, 0.60000
0.000, 1.000, 0.000
**
*BEAM SECTION, ELSET=TOWER_NORTH_CS_037, MATERIAL=CONCRETE, SECTION=BOX
5.00000, 4.00000, 0.60000, 0.60000, 0.60000, 0.60000
0.000, 1.000, 0.000
**
*BEAM SECTION, ELSET=TOWER_SOUTH_CS_038, MATERIAL=CONCRETE, SECTION=BOX
5.00000, 4.00000, 0.60000, 0.60000, 0.60000, 0.60000
0.000, 1.000, 0.000
**
*BEAM SECTION, ELSET=TOWER_NORTH_CS_038, MATERIAL=CONCRETE, SECTION=BOX
5.00000, 4.00000, 0.60000, 0.60000, 0.60000, 0.60000
0.000, 1.000, 0.000
**
*BEAM SECTION, ELSET=TOWER_SOUTH_CS_039, MATERIAL=CONCRETE, SECTION=BOX
5.00000, 4.00000, 0.60000, 0.60000, 0.60000, 0.60000
0.000, 1.000, 0.000
**
*BEAM SECTION, ELSET=TOWER_NORTH_CS_039, MATERIAL=CONCRETE, SECTION=BOX
5.00000, 4.00000, 0.60000, 0.60000, 0.60000, 0.60000
0.000, 1.000, 0.000
**
*BEAM SECTION, ELSET=TOWER_SOUTH_CS_040, MATERIAL=CONCRETE, SECTION=BOX
5.00000, 4.00000, 0.60000, 0.60000, 0.60000, 0.60000
0.000, 1.000, 0.000
**
*BEAM SECTION, ELSET=TOWER_NORTH_CS_040, MATERIAL=CONCRETE, SECTION=BOX
5.00000, 4.00000, 0.60000, 0.60000, 0.60000, 0.60000
0.000, 1.000, 0.000
**
*BEAM SECTION, ELSET=TOWER_SOUTH_CS_041, MATERIAL=CONCRETE, SECTION=BOX
5.00000, 4.00000, 0.60000, 0.60000, 0.60000, 0.60000
0.000, 1.000, 0.000
**
*BEAM SECTION, ELSET=TOWER_NORTH_CS_041, MATERIAL=CONCRETE, SECTION=BOX
5.00000, 4.00000, 0.60000, 0.60000, 0.60000, 0.60000
0.000, 1.000, 0.000
**
*BEAM SECTION, ELSET=TOWER_SOUTH_CS_042, MATERIAL=CONCRETE, SECTION=BOX
5.00000, 4.00000, 0.60000, 0.60000, 0.60000, 0.60000
0.000, 1.000, 0.000
**
*BEAM SECTION, ELSET=TOWER_NORTH_CS_042, MATERIAL=CONCRETE, SECTION=BOX
5.00000, 4.00000, 0.60000, 0.60000, 0.60000, 0.60000
0.000, 1.000, 0.000
**
*BEAM SECTION, ELSET=TOWER_SOUTH_CS_043, MATERIAL=CONCRETE, SECTION=BOX
5.00000, 4.00000, 0.60000, 0.60000, 0.60000, 0.60000
0.000, 1.000, 0.000
**
*BEAM SECTION, ELSET=TOWER_NORTH_CS_043, MATERIAL=CONCRETE, SECTION=BOX
5.00000, 4.00000, 0.60000, 0.60000, 0.60000, 0.60000
0.000, 1.000, 0.000
**
*BEAM SECTION, ELSET=TOWER_SOUTH_CS_044, MATERIAL=CONCRETE, SECTION=BOX
5.00000, 4.00000, 0.60000, 0.60000, 0.60000, 0.60000
0.000, 1.000, 0.000
**
*BEAM SECTION, ELSET=TOWER_NORTH_CS_044, MATERIAL=CONCRETE, SECTION=BOX
5.00000, 4.00000, 0.60000, 0.60000, 0.60000, 0.60000
0.000, 1.000, 0.000
**
*BEAM SECTION, ELSET=TOWER_CROSSBEAM_SOUTH_1, MATERIAL=CONCRETE, SECTION=BOX
4.00000, 6.00000, 0.60000, 0.60000, 0.60000, 0.60000
1.000, 0.000, 0.000
*BEAM SECTION, ELSET=TOWER_CROSSBEAM_NORTH_1, MATERIAL=CONCRETE, SECTION=BOX
4.00000, 6.00000, 0.60000, 0.60000, 0.60000, 0.60000
1.000, 0.000, 0.000
**
*BEAM SECTION, ELSET=TOWER_CROSSBEAM_SOUTH_2, MATERIAL=CONCRETE, SECTION=BOX
4.00000, 4.00000, 0.60000, 0.60000, 0.60000, 0.60000
1.000, 0.000, 0.000
*BEAM SECTION, ELSET=TOWER_CROSSBEAM_NORTH_2, MATERIAL=CONCRETE, SECTION=BOX
4.00000, 4.00000, 0.60000, 0.60000, 0.60000, 0.60000
1.000, 0.000, 0.000
**
*NSET, NSET=TOWER_LEG_SOUTH_CROSSBEAM_1_START
100013
**
**
*MPC
BEAM, Tower_crossbeam_south_1_start,Tower_leg_south_crossbeam_1_start
**
*NSET, NSET=TOWER_LEG_SOUTH_CROSSBEAM_1_END
110013
**
**
*MPC
BEAM, Tower_crossbeam_south_1_end,Tower_leg_south_crossbeam_1_end
**
*NSET, NSET=TOWER_LEG_SOUTH_CROSSBEAM_2_START
100045
**
**
*MPC
BEAM, Tower_crossbeam_south_2_start,Tower_leg_south_crossbeam_2_start
**
*NSET, NSET=TOWER_LEG_SOUTH_CROSSBEAM_2_END
110045
**
**
*MPC
BEAM, Tower_crossbeam_south_2_end,Tower_leg_south_crossbeam_2_end
**
*NSET, NSET=TOWER_LEG_NORTH_CROSSBEAM_1_START
200013
**
**
*MPC
BEAM, Tower_crossbeam_north_1_start,Tower_leg_north_crossbeam_1_start
**
*NSET, NSET=TOWER_LEG_NORTH_CROSSBEAM_1_END
210013
**
**
*MPC
BEAM, Tower_crossbeam_north_1_end,Tower_leg_north_crossbeam_1_end
**
*NSET, NSET=TOWER_LEG_NORTH_CROSSBEAM_2_START
200045
**
**
*MPC
BEAM, Tower_crossbeam_north_2_start,Tower_leg_north_crossbeam_2_start
**
*NSET, NSET=TOWER_LEG_NORTH_CROSSBEAM_2_END
210045
**
**
*MPC
BEAM, Tower_crossbeam_north_2_end,Tower_leg_north_crossbeam_2_end
**
***********************************************************
** SADLE
***********************************************************
*ELEMENT, TYPE=SPRING2, ELSET=SADLESPRING_X
300000,100045,10051
300001,110045,20051
300002,200045,10155
300003,210045,20155
*SPRING, ELSET=SADLESPRING_X
1,1
1.00000e+12
**
**
*ELEMENT, TYPE=SPRING2, ELSET=SADLESPRING_Y
301000,100045,10051
301001,110045,20051
301002,200045,10155
301003,210045,20155
*SPRING, ELSET=SADLESPRING_Y
2,2
1.00000e+12
**
**
*ELEMENT, TYPE=SPRING2, ELSET=SADLESPRING_Z
302000,100045,10051
302001,110045,20051
302002,200045,10155
302003,210045,20155
*SPRING, ELSET=SADLESPRING_Z
3,3
1.00000e+12
**
**
*ELSET, ELSET=SADLESPRING
SADLESPRING_X
SADLESPRING_Y
SADLESPRING_Z
**
**
***********************************************************
** BRIDGE DECK
***********************************************************
*NODE,NSET=BRIDGEDECK_COG
1001,-617.50000,0.00000,69.57077
1002,-616.00000,0.00000,69.64571
1003,-612.00000,0.00000,69.84466
1004,-608.00000,0.00000,70.04231
1005,-604.00000,0.00000,70.23867
1006,-600.00000,0.00000,70.43373
1007,-596.00000,0.00000,70.62750
1008,-592.00000,0.00000,70.81997
1009,-588.00000,0.00000,71.01114
1010,-584.00000,0.00000,71.20102
1011,-580.00000,0.00000,71.38960
1012,-576.00000,0.00000,71.57689
1013,-572.00000,0.00000,71.76288
1014,-568.00000,0.00000,71.94757
1015,-564.00000,0.00000,72.13097
1016,-560.00000,0.00000,72.31307
1017,-556.00000,0.00000,72.49387
1018,-552.00000,0.00000,72.67338
1019,-548.00000,0.00000,72.85159
1020,-544.00000,0.00000,73.02851
** ... 291 like lines cut
**
**
*NODE,NSET=BRIDGEOUTER_EAST
11001,-617.50000,-16.00000,70.57077
11003,-612.00000,-16.00000,70.84466
11006,-600.00000,-16.00000,71.43373
11009,-588.00000,-16.00000,72.01114
11012,-576.00000,-16.00000,72.57689
11015,-564.00000,-16.00000,73.13097
11018,-552.00000,-16.00000,73.67338
11021,-540.00000,-16.00000,74.20413
11024,-528.00000,-16.00000,74.72322
11027,-516.00000,-16.00000,75.23064
11030,-504.00000,-16.00000,75.72639
11033,-492.00000,-16.00000,76.21048
11036,-480.00000,-16.00000,76.68291
11039,-468.00000,-16.00000,77.14366
11042,-456.00000,-16.00000,77.59276
11045,-444.00000,-16.00000,78.03019
11048,-432.00000,-16.00000,78.45595
11051,-420.00000,-16.00000,78.87005
11054,-408.00000,-16.00000,79.27249
11057,-396.00000,-16.00000,79.66326
** ... 85 like lines cut
**
**
*NODE,NSET=BRIDGEOUTER_WEST
12001,-617.50000,16.00000,70.57077
12003,-612.00000,16.00000,70.84466
12006,-600.00000,16.00000,71.43373
12009,-588.00000,16.00000,72.01114
12012,-576.00000,16.00000,72.57689
12015,-564.00000,16.00000,73.13097
12018,-552.00000,16.00000,73.67338
12021,-540.00000,16.00000,74.20413
12024,-528.00000,16.00000,74.72322
12027,-516.00000,16.00000,75.23064
12030,-504.00000,16.00000,75.72639
12033,-492.00000,16.00000,76.21048
12036,-480.00000,16.00000,76.68291
12039,-468.00000,16.00000,77.14366
12042,-456.00000,16.00000,77.59276
12045,-444.00000,16.00000,78.03019
12048,-432.00000,16.00000,78.45595
12051,-420.00000,16.00000,78.87005
12054,-408.00000,16.00000,79.27249
12057,-396.00000,16.00000,79.66326
** ... 85 like lines cut
**
**
*ELEMENT, TYPE=B31, ELSET=BRIDGEDECK_COG
1001, 1001, 1002
1002, 1002, 1003
1003, 1003, 1004
1004, 1004, 1005
1005, 1005, 1006
1006, 1006, 1007
1007, 1007, 1008
1008, 1008, 1009
1009, 1009, 1010
1010, 1010, 1011
1011, 1011, 1012
1012, 1012, 1013
1013, 1013, 1014
1014, 1014, 1015
1015, 1015, 1016
1016, 1016, 1017
1017, 1017, 1018
1018, 1018, 1019
1019, 1019, 1020
1020, 1020, 1021
** ... 290 like lines cut
**
**
*ELEMENT, TYPE=B31, ELSET=LATCONNOUTEREAST
3001, 1001, 11001
3002, 1003, 11003
3003, 1006, 11006
3004, 1009, 11009
3005, 1012, 11012
3006, 1015, 11015
3007, 1018, 11018
3008, 1021, 11021
3009, 1024, 11024
3010, 1027, 11027
3011, 1030, 11030
3012, 1033, 11033
3013, 1036, 11036
3014, 1039, 11039
3015, 1042, 11042
3016, 1045, 11045
3017, 1048, 11048
3018, 1051, 11051
3019, 1054, 11054
3020, 1057, 11057
** ... 85 like lines cut
**
**
*ELEMENT, TYPE=B31, ELSET=LATCONNOUTERWEST
4001, 1001, 12001
4002, 1003, 12003
4003, 1006, 12006
4004, 1009, 12009
4005, 1012, 12012
4006, 1015, 12015
4007, 1018, 12018
4008, 1021, 12021
4009, 1024, 12024
4010, 1027, 12027
4011, 1030, 12030
4012, 1033, 12033
4013, 1036, 12036
4014, 1039, 12039
4015, 1042, 12042
4016, 1045, 12045
4017, 1048, 12048
4018, 1051, 12051
4019, 1054, 12054
4020, 1057, 12057
** ... 85 like lines cut
**
**
*ELEMENT, TYPE=S4R, ELSET=BRIDGEDECK_SHELL_EAST
910001, 11001, 1001, 1003, 11003
910002, 11003, 1003, 1006, 11006
910003, 11006, 1006, 1009, 11009
910004, 11009, 1009, 1012, 11012
910005, 11012, 1012, 1015, 11015
910006, 11015, 1015, 1018, 11018
910007, 11018, 1018, 1021, 11021
910008, 11021, 1021, 1024, 11024
910009, 11024, 1024, 1027, 11027
910010, 11027, 1027, 1030, 11030
910011, 11030, 1030, 1033, 11033
910012, 11033, 1033, 1036, 11036
910013, 11036, 1036, 1039, 11039
910014, 11039, 1039, 1042, 11042
910015, 11042, 1042, 1045, 11045
910016, 11045, 1045, 1048, 11048
910017, 11048, 1048, 1051, 11051
910018, 11051, 1051, 1054, 11054
910019, 11054, 1054, 1057, 11057
910020, 11057, 1057, 1060, 11060
** ... 84 like lines cut
**
**
*ELEMENT, TYPE=S4R, ELSET=BRIDGEDECK_SHELL_WEST
920001, 12001, 1001, 1003, 12003
920002, 12003, 1003, 1006, 12006
920003, 12006, 1006, 1009, 12009
920004, 12009, 1009, 1012, 12012
920005, 12012, 1012, 1015, 12015
920006, 12015, 1015, 1018, 12018
920007, 12018, 1018, 1021, 12021
920008, 12021, 1021, 1024, 12024
920009, 12024, 1024, 1027, 12027
920010, 12027, 1027, 1030, 12030
920011, 12030, 1030, 1033, 12033
920012, 12033, 1033, 1036, 12036
920013, 12036, 1036, 1039, 12039
920014, 12039, 1039, 1042, 12042
920015, 12042, 1042, 1045, 12045
920016, 12045, 1045, 1048, 12048
920017, 12048, 1048, 1051, 12051
920018, 12051, 1051, 1054, 12054
920019, 12054, 1054, 1057, 12057
920020, 12057, 1057, 1060, 12060
** ... 84 like lines cut
**
**
*ELSET, ELSET=LATCONNOUTER
LATCONNOUTEREAST
LATCONNOUTERWEST
**
**
*ELSET, ELSET=BRIDGEDECK_SHELL
BRIDGEDECK_SHELL_EAST
BRIDGEDECK_SHELL_WEST
**
**
*ELSET, ELSET=BRIDGEDECK
BRIDGEDECK_COG
LATCONNOUTER
**
**
*BEAM GENERAL SECTION, ELSET=LATCONNOUTER, SECTION=GENERAL, DENSITY=0.000
1.00000e-01, 1.00000e+00, 0.00000e+00, 1.00000e+00, 1.00000e+00
1.000, 0.000, 0.000
2.10000e+13, 8.10000e+12
*BEAM GENERAL SECTION, ELSET=BRIDGEDECK_COG, SECTION=GENERAL, DENSITY=0.000
2.39898e+00, 5.64225e+00, 0.00000e+00, 1.86360e+02, 1.98004e+01
0.000, 1.000, 0.000
7.00000e+10, 2.60000e+10
*BEAM ADDED INERTIA
1.310e+04, 0.000e+00, 0.000e+00, 0.000e+00, 1.680e+04, 8.605e+05, 0.000e+0
**
*SHEAR CENTER
0.000e+00,-1.400e+00
*SHELL SECTION, ELSET=BRIDGEDECK_SHELL, MATERIAL=SOFT, OFFSET=SNEG
0.010,3
**
***********************************************************
** HANGER
***********************************************************
*ELEMENT, TYPE=B31, ELSET=HANGER_EAST
80001, 11003, 10052
80002, 11006, 10053
80003, 11009, 10054
80004, 11012, 10055
80005, 11015, 10056
80006, 11018, 10057
80007, 11021, 10058
80008, 11024, 10059
80009, 11027, 10060
80010, 11030, 10061
80011, 11033, 10062
80012, 11036, 10063
80013, 11039, 10064
80014, 11042, 10065
80015, 11045, 10066
80016, 11048, 10067
80017, 11051, 10068
80018, 11054, 10069
80019, 11057, 10070
80020, 11060, 10071
** ... 83 like lines cut
**
**
*ELEMENT, TYPE=B31, ELSET=HANGER_WEST
90001, 12003, 20052
90002, 12006, 20053
90003, 12009, 20054
90004, 12012, 20055
90005, 12015, 20056
90006, 12018, 20057
90007, 12021, 20058
90008, 12024, 20059
90009, 12027, 20060
90010, 12030, 20061
90011, 12033, 20062
90012, 12036, 20063
90013, 12039, 20064
90014, 12042, 20065
90015, 12045, 20066
90016, 12048, 20067
90017, 12051, 20068
90018, 12054, 20069
90019, 12057, 20070
90020, 12060, 20071
** ... 83 like lines cut
**
**
*ELSET, ELSET=HANGER
HANGER_EAST
HANGER_WEST
**
**
*BEAM GENERAL SECTION, ELSET=HANGER, SECTION=GENERAL, DENSITY=7850.00
1.57797e-03, 1.00000e-08, 0.00000e+00, 1.00000e-08, 1.00000e-08
0.000, 1.000, 0.000
1.60000e+11, 6.00000e+10
*RELEASE
Hanger, S1, M1-M2
Hanger, S2, M1-M2
**
***********************************************************
** BEARINGS
***********************************************************
*ELEMENT, TYPE=SPRING2, ELSET=BEARINGSPRING1_SOUTH_X
410000,400002,400005
*SPRING, ELSET=BEARINGSPRING1_SOUTH_X
1,1
3.00000e+07
**
**
*ELEMENT, TYPE=SPRING2, ELSET=BEARINGSPRING1_SOUTH_Y
410001,400002,400005
*SPRING, ELSET=BEARINGSPRING1_SOUTH_Y
2,2
1.00000e+12
**
**
*ELEMENT, TYPE=SPRING2, ELSET=BEARINGSPRING1_SOUTH_Z
410002,400002,400005
*SPRING, ELSET=BEARINGSPRING1_SOUTH_Z
3,3
1.00000e+06
**
**
*ELEMENT, TYPE=SPRING2, ELSET=BEARINGSPRING1_SOUTH_RX
410003,400002,400005
*SPRING, ELSET=BEARINGSPRING1_SOUTH_RX
4,4
1.00000e+00
**
**
*ELEMENT, TYPE=SPRING2, ELSET=BEARINGSPRING1_SOUTH_RY
410004,400002,400005
*SPRING, ELSET=BEARINGSPRING1_SOUTH_RY
5,5
1.00000e+00
**
**
*ELEMENT, TYPE=SPRING2, ELSET=BEARINGSPRING1_SOUTH_RZ
410005,400002,400005
*SPRING, ELSET=BEARINGSPRING1_SOUTH_RZ
6,6
1.00000e+00
**
**
*ELEMENT, TYPE=SPRING2, ELSET=BEARINGSPRING1_NORTH_X
411000,401002,401005
*SPRING, ELSET=BEARINGSPRING1_NORTH_X
1,1
3.00000e+07
**
**
*ELEMENT, TYPE=SPRING2, ELSET=BEARINGSPRING1_NORTH_Y
411001,401002,401005
*SPRING, ELSET=BEARINGSPRING1_NORTH_Y
2,2
1.00000e+12
**
**
*ELEMENT, TYPE=SPRING2, ELSET=BEARINGSPRING1_NORTH_Z
411002,401002,401005
*SPRING, ELSET=BEARINGSPRING1_NORTH_Z
3,3
1.00000e+06
**
**
*ELEMENT, TYPE=SPRING2, ELSET=BEARINGSPRING1_NORTH_RX
411003,401002,401005
*SPRING, ELSET=BEARINGSPRING1_NORTH_RX
4,4
1.00000e+00
**
**
*ELEMENT, TYPE=SPRING2, ELSET=BEARINGSPRING1_NORTH_RY
411004,401002,401005
*SPRING, ELSET=BEARINGSPRING1_NORTH_RY
5,5
1.00000e+00
**
**
*ELEMENT, TYPE=SPRING2, ELSET=BEARINGSPRING1_NORTH_RZ
411005,401002,401005
*SPRING, ELSET=BEARINGSPRING1_NORTH_RZ
6,6
1.00000e+00
**
**
*NODE,NSET=BEARINGTOP1_SOUTH
400001,-617.50000,-11.50000,69.57077
400002,-617.50000,0.00000,66.57077
400003,-617.50000,11.50000,69.57077
**
**
*NODE,NSET=BEARINGLOW1_SOUTH
400004,-616.50000,-11.50000,63.00000
400005,-616.50000,0.00000,66.00000
400006,-616.50000,11.50000,63.00000
**
**
*NODE,NSET=BEARINGTOP1_NORTH
401001,617.50000,-11.50000,69.56980
401002,617.50000,0.00000,66.56980
401003,617.50000,11.50000,69.56980
**
**
*NODE,NSET=BEARINGLOW1_NORTH
401004,616.50000,-11.50000,63.00000
401005,616.50000,0.00000,66.00000
401006,616.50000,11.50000,63.00000
**
**
*ELEMENT, TYPE=B31, ELSET=BEARINGTOP1_SOUTH
400001, 11001, 400001
400002, 400001, 400002
400003, 400002, 400003
400004, 400003, 12001
400005, 1001, 400002
**
**
*ELEMENT, TYPE=B31, ELSET=BEARINGLOW1_SOUTH
400006, 101002, 400004
400007, 101003, 400005
400008, 101004, 400006
**
**
*ELEMENT, TYPE=B31, ELSET=BEARINGPENDULUM1_SOUTH
400009, 400001, 400004
400010, 400003, 400006
**
**
*ELEMENT, TYPE=B31, ELSET=BEARINGTOP1_NORTH
401001, 11311, 401001
401002, 401001, 401002
401003, 401002, 401003
401004, 401003, 12311
401005, 1311, 401002
**
**
*ELEMENT, TYPE=B31, ELSET=BEARINGLOW1_NORTH
401006, 201002, 401004
401007, 201003, 401005
401008, 201004, 401006
**
**
*ELEMENT, TYPE=B31, ELSET=BEARINGPENDULUM1_NORTH
401009, 401001, 401004
401010, 401003, 401006
**
**
*ELSET, ELSET=BEARINGSPRING1_SOUTH
BEARINGSPRING1_SOUTH_X
BEARINGSPRING1_SOUTH_Y
BEARINGSPRING1_SOUTH_Z
BEARINGSPRING1_SOUTH_RX
BEARINGSPRING1_SOUTH_RY
BEARINGSPRING1_SOUTH_RZ
**
**
*ELSET, ELSET=BEARINGSPRING1_NORTH
BEARINGSPRING1_NORTH_X
BEARINGSPRING1_NORTH_Y
BEARINGSPRING1_NORTH_Z
BEARINGSPRING1_NORTH_RX
BEARINGSPRING1_NORTH_RY
BEARINGSPRING1_NORTH_RZ
**
**
*ELSET, ELSET=BEARINGTOP
BEARINGTOP1_SOUTH
BEARINGTOP1_NORTH
**
**
*ELSET, ELSET=BEARINGLOW
BEARINGLOW1_SOUTH
BEARINGLOW1_NORTH
**
**
*ELSET, ELSET=BEARINGPENDULUM
BEARINGPENDULUM1_SOUTH
BEARINGPENDULUM1_NORTH
**
**
*ELSET, ELSET=BEARINGSPRING
BEARINGSPRING1_SOUTH
BEARINGSPRING1_NORTH
**
**
*ELSET, ELSET=BEARING
BEARINGLOW
BEARINGTOP
BEARINGPENDULUM
BEARINGSPRING
**
**
*BEAM GENERAL SECTION, ELSET=BEARINGTOP, SECTION=GENERAL, DENSITY=0.000
1.00000e-01, 1.00000e+00, 0.00000e+00, 1.00000e+00, 1.00000e+00
1.000, 0.000, 0.000
2.10000e+13, 8.10000e+12
*BEAM GENERAL SECTION, ELSET=BEARINGLOW, SECTION=GENERAL, DENSITY=0.000
1.00000e-01, 1.00000e+00, 0.00000e+00, 1.00000e+00, 1.00000e+00
1.000, 0.000, 0.000
2.10000e+13, 8.10000e+12
*BEAM SECTION, ELSET=BEARINGPENDULUM, MATERIAL=STEEL, SECTION=BOX
0.20000, 0.20000, 0.02000, 0.02000, 0.02000, 0.02000
0.000, 1.000, 0.000
**
*RELEASE
BEARINGPENDULUM, S1, M1-M2
BEARINGPENDULUM, S2, M1-M2
**
*END PART
**
***********************************************************
** ASSEMBLY
***********************************************************
*ASSEMBLY, NAME=ASSEMBLYSUSPENSIONBRIDGE
**
*INSTANCE, NAME=SUSPENSIONBRIDGE, PART=SUSPENSIONBRIDGE
**
*END INSTANCE
**
*END ASSEMBLY
**
**********
** Towers, retraction
**********
*STEP , NLGEO=YES, NAME=STEP1
*STATIC 
1.0e-01,1.0e+00,1.0e-06,1.0e+00
**
*MODEL CHANGE, REMOVE
SuspensionBridge.CABLE_MAIN
SuspensionBridge.SADLESPRING
SuspensionBridge.BRIDGEDECK
SuspensionBridge.HANGER
SuspensionBridge.BEARINGTOP
SuspensionBridge.BEARINGPENDULUM
SuspensionBridge.BEARINGSPRING
**
*MODEL CHANGE, REMOVE
SuspensionBridge.CABLE_TEMPSUPPORT
**
*MODEL CHANGE, REMOVE
SuspensionBridge.Bridgedeck_shell
**
*CLOAD, OP=NEW
SuspensionBridge.Tower_top_south_east, 1, -6.000e+05
SuspensionBridge.Tower_top_south_west, 1, -6.000e+05
**
*CLOAD, OP=NEW
SuspensionBridge.Tower_top_north_east, 1, 6.000e+05
SuspensionBridge.Tower_top_north_west, 1, 6.000e+05
**
*DLOAD, OP=NEW
, GRAV, 9.81000, 0 , 0, -1
**
*BOUNDARY, OP=NEW
SuspensionBridge.Tower_base,1,6,0
**
**
*OUTPUT, FIELD, FREQUENCY=100
*NODE OUTPUT 
U
RF
COORD
**
*OUTPUT, FIELD, FREQUENCY=100
*ELEMENT OUTPUT 
SF
**
*END STEP
**
**
**********
** Add main cable, release retraction
**********
*STEP , NLGEO=YES, NAME=STEP2
*STATIC 
1.0e-08,1.0e+00,1.0e-12,1.0e+00
**
*MODEL CHANGE, ADD
SuspensionBridge.CABLE_MAIN
SuspensionBridge.SADLESPRING
**
*MODEL CHANGE, ADD
SuspensionBridge.CABLE_TEMPSUPPORT
**
*CLOAD, OP=NEW
**
*DLOAD, OP=NEW
, GRAV, 9.81000, 0 , 0, -1
**
*BOUNDARY, OP=NEW
SuspensionBridge.Tower_base,1,6,0
**
**
*BOUNDARY, OP=NEW
SuspensionBridge.Cable_main_anchorage,1,4,0
**
**
*OUTPUT, FIELD, FREQUENCY=100
*NODE OUTPUT 
U
RF
COORD
**
*OUTPUT, FIELD, FREQUENCY=100
*ELEMENT OUTPUT 
SF
S
**
*END STEP
**
**
**********
** Add hangers and bridge deck, remove main cable temp supports
**********
*STEP , NLGEO=YES, NAME=STEP3
*STATIC 
1.0e-08,1.0e+00,1.0e-12,1.0e+00
**
*MODEL CHANGE, ADD
SuspensionBridge.BRIDGEDECK
SuspensionBridge.HANGER
SuspensionBridge.BEARINGTOP
**
*MODEL CHANGE, REMOVE
SuspensionBridge.CABLE_TEMPSUPPORT
**
*DLOAD, OP=NEW
SuspensionBridge.TOWER, GRAV, 9.81000, 0 , 0, -1
SuspensionBridge.CABLE_MAIN, GRAV, 9.81000, 0 , 0, -1
SuspensionBridge.HANGER, GRAV, 9.81000, 0 , 0, -1
SuspensionBridge.BRIDGEDECK, GRAV, 9.81000, 0 , 0, -1
SuspensionBridge.BEARINGTOP, GRAV, 9.81000, 0 , 0, -1
SuspensionBridge.BEARINGLOW, GRAV, 9.81000, 0 , 0, -1
**
*OUTPUT, FIELD, FREQUENCY=100
*NODE OUTPUT 
U
RF
COORD
**
*OUTPUT, FIELD, FREQUENCY=100
*ELEMENT OUTPUT 
SF
S
**
*CONTROLS, RESET
**
*END STEP
**
**
**********
** Add bearings at bridge deck ends
**********
*STEP , NLGEO=YES, NAME=STEP4
*STATIC 
1.0e-01,1.0e+00,1.0e-06,1.0e+00
**
*MODEL CHANGE, ADD
SuspensionBridge.BEARINGPENDULUM
SuspensionBridge.BEARINGSPRING
**
*MODEL CHANGE, ADD
SuspensionBridge.Bridgedeck_shell
**
*OUTPUT, FIELD, FREQUENCY=100
*NODE OUTPUT 
U
RF
COORD
**
*OUTPUT, FIELD, FREQUENCY=100
*ELEMENT OUTPUT 
SF
S
**
*END STEP
**
**
**********
** 
**********
*STEP , NAME=STEP_MODAL
*FREQUENCY, NORMALIZATION=DISPLACEMENT, SIM=NO
100
**
**
*OUTPUT, FIELD
*NODE OUTPUT 
U
COORD
**
*OUTPUT, FIELD
*ELEMENT OUTPUT 
SF
**
*END STEP
**
**
