 Abaqus/Standard 3DEXPERIENCE R2019x                  DATE 03-Jun-2022 TIME 10:26:47
 SUMMARY OF JOB INFORMATION:
 STEP  INC ATT SEVERE EQUIL TOTAL  TOTAL      STEP       INC OF       DOF    IF
               DISCON ITERS ITERS  TIME/    TIME/LPF    TIME/LPF    MONITOR RIKS
               ITERS               FREQ
   1     1   1     0     2     2  0.100      0.100      0.1000    
   1     2   1     0     1     1  0.200      0.200      0.1000    
   1     3   1     0     1     1  0.350      0.350      0.1500    
   1     4   1     0     2     2  0.575      0.575      0.2250    
   1     5   1     0     2     2  0.913      0.913      0.3375    
   1     6   1     0     2     2  1.00       1.00       0.08750   
   2     1   1     0     2     2  1.00       1.00e-08   1.000e-08 
   2     2   1     0     1     1  1.00       2.00e-08   1.000e-08 
   2     3   1     0     1     1  1.00       3.50e-08   1.500e-08 
   2     4   1     0     1     1  1.00       5.75e-08   2.250e-08 
   2     5   1     0     1     1  1.00       9.13e-08   3.375e-08 
   2     6   1     0     1     1  1.00       1.42e-07   5.063e-08 
   2     7   1     0     1     1  1.00       2.18e-07   7.594e-08 
   2     8   1     0     1     1  1.00       3.32e-07   1.139e-07 
   2     9   1     0     1     1  1.00       5.03e-07   1.709e-07 
   2    10   1     0     1     1  1.00       7.59e-07   2.563e-07 
   2    11   1     0     1     1  1.00       1.14e-06   3.844e-07 
   2    12   1     0     1     1  1.00       1.72e-06   5.767e-07 
   2    13   1     0     1     1  1.00       2.58e-06   8.650e-07 
   2    14   1     0     2     2  1.00       3.88e-06   1.297e-06 
   2    15   1     0     2     2  1.00       5.83e-06   1.946e-06 
   2    16   1     0     2     2  1.00       8.75e-06   2.919e-06 
   2    17   1     0     2     2  1.00       1.31e-05   4.379e-06 
   2    18   1     0     2     2  1.00       1.97e-05   6.568e-06 
   2    19   1     0     2     2  1.00       2.95e-05   9.853e-06 
   2    20   1     0     2     2  1.00       4.43e-05   1.478e-05 
   2    21   1     0     2     2  1.00       6.65e-05   2.217e-05 
   2    22   1     0     2     2  1.00       9.97e-05   3.325e-05 
   2    23   1     0     2     2  1.00       0.000150   4.988e-05 
   2    24   1     0     2     2  1.00       0.000224   7.482e-05 
   2    25   1     0     2     2  1.00       0.000337   0.0001122 
   2    26   1     0     2     2  1.00       0.000505   0.0001683 
   2    27   1     0     2     2  1.00       0.000758   0.0002525 
   2    28   1     0     2     2  1.00       0.00114    0.0003788 
   2    29   1     0     2     2  1.00       0.00170    0.0005682 
   2    30   1     0     2     2  1.00       0.00256    0.0008522 
   2    31   1     0     2     2  1.00       0.00384    0.001278  
   2    32   1     0     2     2  1.01       0.00575    0.001918  
   2    33   1     0     2     2  1.01       0.00863    0.002876  
   2    34   1     0     2     2  1.01       0.0129     0.004314  
   2    35   1     0     2     2  1.02       0.0194     0.006472  
   2    36   1     0     4     4  1.03       0.0291     0.009707  
   2    37   1     0     4     4  1.04       0.0437     0.01456   
   2    38   1     0     6     6  1.07       0.0655     0.02184   
   2    39   1     0     6     6  1.09       0.0874     0.02184   
   2    40   1     0     4     4  1.11       0.109      0.02184   
   2    41   1     0     3     3  1.13       0.131      0.02184   
   2    42   1     0     2     2  1.16       0.164      0.03276   
   2    43   1     0     3     3  1.21       0.213      0.04914   
   2    44   1     0     3     3  1.29       0.287      0.07372   
   2    45   1     0     2     2  1.40       0.397      0.1106    
   2    46   1     0     2     2  1.56       0.563      0.1659    
   2    47   1     0     2     2  1.81       0.812      0.2488    
   2    48   1     0     2     2  2.00       1.00       0.1881    
   3     1   1     0     4     4  2.00       1.00e-08   1.000e-08 
   3     2   1     0     6     6  2.00       2.00e-08   1.000e-08 
   3     3   1     0     1     1  2.00       3.00e-08   1.000e-08 
   3     4   1     0     2     2  2.00       4.00e-08   1.000e-08 
   3     5   1     0     2     2  2.00       5.50e-08   1.500e-08 
   3     6   1     0     1     1  2.00       7.75e-08   2.250e-08 
   3     7   1     0     1     1  2.00       1.11e-07   3.375e-08 
   3     8   1     0     1     1  2.00       1.62e-07   5.063e-08 
   3     9   1     0     2     2  2.00       2.38e-07   7.594e-08 
   3    10   1     0     2     2  2.00       3.52e-07   1.139e-07 
   3    11   1     0     2     2  2.00       5.23e-07   1.709e-07 
   3    12   1     0     2     2  2.00       7.79e-07   2.563e-07 
   3    13   1     0     1     1  2.00       1.16e-06   3.844e-07 
   3    14   1     0     2     2  2.00       1.74e-06   5.767e-07 
   3    15   1     0     2     2  2.00       2.60e-06   8.650e-07 
   3    16   1     0     1     1  2.00       3.90e-06   1.297e-06 
   3    17   1     0     2     2  2.00       5.85e-06   1.946e-06 
   3    18   1     0     3     3  2.00       8.77e-06   2.919e-06 
   3    19   1     0     1     1  2.00       1.31e-05   4.379e-06 
   3    20   1     0     2     2  2.00       1.97e-05   6.568e-06 
   3    21   1     0     1     1  2.00       2.96e-05   9.853e-06 
   3    22   1     0     2     2  2.00       4.43e-05   1.478e-05 
   3    23   1     0     1     1  2.00       6.65e-05   2.217e-05 
   3    24   1     0     1     1  2.00       9.98e-05   3.325e-05 
   3    25   1     0     1     1  2.00       0.000150   4.988e-05 
   3    26   1     0     1     1  2.00       0.000224   7.482e-05 
   3    27   1     0     1     1  2.00       0.000337   0.0001122 
   3    28   1     0     1     1  2.00       0.000505   0.0001683 
   3    29   1     0     1     1  2.00       0.000758   0.0002525 
   3    30   1     0     1     1  2.00       0.00114    0.0003788 
   3    31   1     0     3     3  2.00       0.00170    0.0005682 
   3    32   1     0     1     1  2.00       0.00256    0.0008522 
   3    33   1     0     1     1  2.00       0.00384    0.001278  
   3    34   1     0     1     1  2.01       0.00575    0.001918  
   3    35   1     0     1     1  2.01       0.00863    0.002876  
   3    36   1     0     1     1  2.01       0.0129     0.004314  
   3    37   1     0     1     1  2.02       0.0194     0.006472  
   3    38   1     0     1     1  2.03       0.0291     0.009707  
   3    39   1     0     1     1  2.04       0.0437     0.01456   
   3    40   1     0     1     1  2.07       0.0655     0.02184   
   3    41   1     0     1     1  2.10       0.0983     0.03276   
   3    42   1     0     1     1  2.15       0.147      0.04914   
   3    43   1     0     3     3  2.22       0.221      0.07372   
   3    44   1     0     4     4  2.33       0.332      0.1106    
   3    45   1     0     2     2  2.50       0.498      0.1659    
   3    46   1     0     2     2  2.75       0.746      0.2488    
   3    47   1     0     2     2  3.00       1.00       0.2536    
   4     1   1     0     3     3  3.10       0.100      0.1000    
   4     2   1     0     5     5  3.20       0.200      0.1000    
   4     3   1     0     4     4  3.30       0.300      0.1000    
   4     4   1     0     2     2  3.40       0.400      0.1000    
   4     5   1     0     1     1  3.55       0.550      0.1500    
   4     6   1     0     1     1  3.77       0.775      0.2250    
   4     7   1     0     1     1  4.00       1.00       0.2250    
   5     1   1     0     0     0  4.00       1.00e-36   1.000e-36 
                          
 THE ANALYSIS HAS COMPLETED SUCCESSFULLY
